api/pglib_opf_case3120sp_mp__api.m
%%%%%%%%%%%%%%%%%%%%%%%%%%%%%%%%%%%%%%%%%%%%%%%%%%%%%%%%%%%%%%%%%%%%%%%%%%%
%%%%                                                                  %%%%%
%%%%    IEEE PES Power Grid Library - Optimal Power Flow - v17.07     %%%%%
%%%%          (https://github.com/power-grid-lib/pglib-opf)           %%%%%
%%%%             Benchmark Group - Active Power Increase              %%%%%
%%%%                         27 - June - 2017                         %%%%%
%%%%                                                                  %%%%%
%%%%%%%%%%%%%%%%%%%%%%%%%%%%%%%%%%%%%%%%%%%%%%%%%%%%%%%%%%%%%%%%%%%%%%%%%%%
function mpc = pglib_opf_case3120sp_mp__api
mpc.version = '2';
mpc.baseMVA = 100.0;

%% area data
%	area	refbus
mpc.areas = [
	1	 1;
];

%% bus data
%	bus_i	type	Pd	Qd	Gs	Bs	area	Vm	Va	baseKV	zone	Vmax	Vmin
mpc.bus = [
	1	 1	 0.00	 0.00	 0.0	 0.0	 1	    1.08286	   -2.82127	 220.0	 1	    1.11000	    0.95000;
	2	 1	 0.00	 0.00	 0.0	 0.0	 1	    1.10759	   -0.06680	 220.0	 1	    1.11000	    0.95000;
	3	 1	 0.00	 0.00	 0.0	 0.0	 1	    1.05162	  -14.05753	 220.0	 1	    1.11000	    0.95000;
	4	 1	 0.00	 0.00	 0.0	 0.0	 1	    1.05159	  -14.06971	 220.0	 1	    1.11000	    0.95000;
	5	 1	 0.00	 0.00	 0.0	 0.0	 1	    1.09358	  -17.88370	 220.0	 1	    1.11000	    0.95000;
	6	 1	 0.00	 0.00	 0.0	 0.0	 1	    1.08063	   -5.05823	 220.0	 1	    1.11000	    0.95000;
	7	 1	 0.00	 0.00	 0.0	 0.0	 1	    1.08056	   -5.06504	 220.0	 1	    1.11000	    0.95000;
	8	 1	 0.00	 0.00	 0.0	 0.0	 1	    1.09097	  -10.68316	 220.0	 1	    1.11000	    0.95000;
	9	 1	 0.00	 0.00	 0.0	 0.0	 1	    1.09114	  -10.66718	 220.0	 1	    1.11000	    0.95000;
	10	 1	 0.00	 0.00	 0.0	 0.0	 1	    1.11000	  -13.90759	 220.0	 1	    1.11000	    0.95000;
	11	 1	 0.00	 0.00	 0.0	 0.0	 1	    1.03851	   -9.47732	 400.0	 1	    1.05000	    0.95000;
	12	 1	 0.00	 0.00	 0.0	 0.0	 1	    1.03856	   -9.47569	 400.0	 1	    1.05000	    0.95000;
	13	 1	 0.00	 0.00	 0.0	 0.0	 1	    1.01930	  -12.15405	 400.0	 1	    1.05000	    0.95000;
	14	 1	 0.00	 0.00	 0.0	 0.0	 1	    1.04851	  -11.94913	 220.0	 1	    1.11000	    0.95000;
	15	 1	 0.00	 0.00	 0.0	 0.0	 1	    1.04837	  -11.95232	 220.0	 1	    1.11000	    0.95000;
	16	 1	 0.00	 0.00	 0.0	 0.0	 1	    1.01846	  -15.08061	 220.0	 1	    1.11000	    0.95000;
	17	 1	 0.00	 0.00	 0.0	 0.0	 1	    1.02578	  -14.97980	 220.0	 1	    1.11000	    0.95000;
	18	 1	 0.00	 0.00	 0.0	 0.0	 1	    1.04124	   -8.15283	 400.0	 1	    1.05000	    0.95000;
	19	 1	 0.00	 0.00	 0.0	 0.0	 1	    1.04128	   -8.14685	 400.0	 1	    1.05000	    0.95000;
	20	 1	 0.00	 0.00	 0.0	 0.0	 1	    1.02811	  -14.06611	 400.0	 1	    1.05000	    0.95000;
	21	 1	 0.00	 0.00	 0.0	 0.0	 1	    1.03176	  -12.83671	 400.0	 1	    1.05000	    0.95000;
	22	 2	 11.81	 20.00	 0.0	 0.0	 1	    1.04236	   -5.12944	 220.0	 1	    1.11000	    0.95000;
	23	 2	 11.81	 20.00	 0.0	 0.0	 1	    1.04265	   -5.12123	 220.0	 1	    1.11000	    0.95000;
	24	 1	 0.00	 0.00	 0.0	 0.0	 1	    1.08444	   -4.29939	 220.0	 1	    1.11000	    0.95000;
	25	 1	 0.00	 0.00	 0.0	 0.0	 1	    1.08443	   -4.30833	 220.0	 1	    1.11000	    0.95000;
	26	 1	 0.00	 0.00	 0.0	 0.0	 1	    1.03883	  -12.52962	 220.0	 1	    1.11000	    0.95000;
	27	 1	 0.00	 0.00	 0.0	 0.0	 1	    1.03888	  -12.53366	 220.0	 1	    1.11000	    0.95000;
	28	 1	 0.00	 0.00	 0.0	 0.0	 1	    1.05095	  -11.97763	 220.0	 1	    1.11000	    0.95000;
	29	 1	 0.00	 0.00	 0.0	 0.0	 1	    1.05088	  -11.98327	 220.0	 1	    1.11000	    0.95000;
	30	 1	 0.00	 0.00	 0.0	 0.0	 1	    1.09362	   -2.44311	 220.0	 1	    1.11000	    0.95000;
	31	 1	 0.00	 0.00	 0.0	 0.0	 1	    1.09353	   -2.45281	 220.0	 1	    1.11000	    0.95000;
	32	 1	 0.00	 0.00	 0.0	 0.0	 1	    1.03836	  -10.72521	 400.0	 1	    1.05000	    0.95000;
	33	 1	 0.00	 0.00	 0.0	 0.0	 1	    1.03834	  -10.72761	 400.0	 1	    1.05000	    0.95000;
	34	 1	 0.00	 0.00	 0.0	 0.0	 1	    1.03237	  -12.24418	 400.0	 1	    1.05000	    0.95000;
	35	 2	 37.97	 52.07	 0.0	 0.0	 1	    1.08370	   -2.64797	 220.0	 1	    1.11000	    0.95000;
	36	 2	 54.74	 92.07	 0.0	 0.0	 1	    1.11000	   -0.07219	 220.0	 1	    1.11000	    0.95000;
	37	 3	 70.85	 120.00	 0.0	 0.0	 1	    1.04994	    0.00000	 400.0	 1	    1.05000	    0.95000;
	38	 2	 70.85	 120.00	 0.0	 0.0	 1	    1.05000	    0.01812	 400.0	 1	    1.05000	    0.95000;
	39	 1	 0.00	 0.00	 0.0	 0.0	 1	    1.04047	  -12.77283	 220.0	 1	    1.11000	    0.95000;
	40	 1	 0.00	 0.00	 0.0	 0.0	 1	    1.04040	  -12.77933	 220.0	 1	    1.11000	    0.95000;
	41	 1	 0.00	 0.00	 0.0	 0.0	 1	    1.04791	   -2.63675	 400.0	 1	    1.05000	    0.95000;
	42	 1	 0.00	 0.00	 0.0	 0.0	 1	    1.04790	   -2.63984	 400.0	 1	    1.05000	    0.95000;
	43	 1	 0.00	 0.00	 0.0	 0.0	 1	    1.04453	  -12.13573	 220.0	 1	    1.11000	    0.95000;
	44	 1	 0.00	 0.00	 0.0	 0.0	 1	    1.03186	  -12.83719	 400.0	 1	    1.05000	    0.95000;
	45	 1	 0.00	 0.00	 0.0	 0.0	 1	    1.07187	   -6.07920	 220.0	 1	    1.11000	    0.95000;
	46	 1	 0.00	 0.00	 0.0	 0.0	 1	    1.07191	   -6.08012	 220.0	 1	    1.11000	    0.95000;
	47	 1	 0.00	 0.00	 0.0	 0.0	 1	    1.08746	  -10.30774	 220.0	 2	    1.11000	    0.95000;
	48	 1	 0.00	 0.00	 0.0	 0.0	 1	    1.09359	   -8.56905	 220.0	 2	    1.11000	    0.95000;
	49	 1	 0.00	 0.00	 0.0	 0.0	 1	    1.10599	   -7.63003	 220.0	 2	    1.11000	    0.95000;
	50	 1	 0.00	 0.00	 0.0	 0.0	 1	    1.10597	   -7.63413	 220.0	 2	    1.11000	    0.95000;
	51	 1	 0.00	 0.00	 0.0	 0.0	 1	    1.05434	  -13.82593	 220.0	 2	    1.11000	    0.95000;
	52	 1	 4.69	 1.00	 0.0	 0.0	 1	    1.09545	   -7.94942	 220.0	 2	    1.11000	    0.95000;
	53	 1	 0.00	 0.00	 0.0	 0.0	 1	    1.09553	   -7.94591	 220.0	 2	    1.11000	    0.95000;
	54	 1	 0.00	 0.00	 0.0	 0.0	 1	    1.03234	   -6.79124	 400.0	 2	    1.05000	    0.95000;
	55	 2	 15.35	 30.00	 0.0	 0.0	 1	    1.09899	   -7.96933	 220.0	 2	    1.11000	    0.95000;
	56	 2	 46.46	 90.07	 0.0	 0.0	 1	    1.09889	   -7.96675	 220.0	 2	    1.11000	    0.95000;
	57	 2	 30.70	 60.00	 0.0	 0.0	 1	    1.09901	   -7.96773	 220.0	 2	    1.11000	    0.95000;
	58	 2	 30.70	 50.00	 0.0	 0.0	 1	    1.05000	   -7.47395	 400.0	 2	    1.05000	    0.95000;
	59	 2	 30.70	 50.00	 0.0	 0.0	 1	    1.04999	   -7.47739	 400.0	 2	    1.05000	    0.95000;
	60	 1	 0.00	 0.00	 0.0	 0.0	 1	    1.08951	   -8.63239	 220.0	 2	    1.11000	    0.95000;
	61	 1	 0.00	 0.00	 0.0	 0.0	 1	    1.04542	   -5.82984	 400.0	 2	    1.05000	    0.95000;
	62	 1	 0.00	 0.00	 0.0	 0.0	 1	    1.04541	   -5.83164	 400.0	 2	    1.05000	    0.95000;
	63	 1	 0.00	 0.00	 0.0	 0.0	 1	    1.04455	   -9.08533	 400.0	 2	    1.05000	    0.95000;
	64	 1	 0.00	 0.00	 0.0	 0.0	 1	    1.06571	  -12.55095	 220.0	 2	    1.11000	    0.95000;
	65	 1	 0.00	 0.00	 0.0	 0.0	 1	    1.06569	  -12.55575	 220.0	 2	    1.11000	    0.95000;
	66	 1	 0.00	 0.00	 0.0	 0.0	 1	    1.04359	   -7.06834	 400.0	 2	    1.05000	    0.95000;
	67	 1	 0.00	 0.00	 0.0	 0.0	 1	    1.04358	   -7.06451	 400.0	 2	    1.05000	    0.95000;
	68	 2	 15.35	 30.00	 0.0	 0.0	 1	    1.11000	   -7.10459	 220.0	 2	    1.11000	    0.95000;
	69	 2	 30.70	 60.00	 0.0	 0.0	 1	    1.10995	   -7.10745	 220.0	 2	    1.11000	    0.95000;
	70	 2	 0.00	 2.25	 0.0	 0.0	 1	    1.04223	   -5.44701	 400.0	 2	    1.05000	    0.95000;
	71	 2	 30.70	 60.00	 0.0	 0.0	 1	    1.04228	   -5.43901	 400.0	 2	    1.05000	    0.95000;
	72	 1	 0.00	 0.00	 0.0	 0.0	 1	    1.10095	   -7.85994	 220.0	 2	    1.11000	    0.95000;
	73	 1	 0.00	 0.00	 0.0	 0.0	 1	    1.10092	   -7.86613	 220.0	 2	    1.11000	    0.95000;
	74	 1	 0.00	 0.00	 0.0	 0.0	 1	    1.09173	   -8.78177	 220.0	 2	    1.11000	    0.95000;
	75	 1	 0.00	 0.00	 0.0	 0.0	 1	    1.09172	   -8.77970	 220.0	 2	    1.11000	    0.95000;
	76	 1	 0.00	 0.00	 0.0	 0.0	 1	    1.09506	   -8.85863	 220.0	 2	    1.11000	    0.95000;
	77	 1	 0.00	 0.00	 0.0	 0.0	 1	    1.09507	   -8.85838	 220.0	 2	    1.11000	    0.95000;
	78	 1	 0.00	 0.00	 0.0	 0.0	 1	    1.05000	   -6.03275	 400.0	 2	    1.05000	    0.95000;
	79	 1	 0.00	 0.00	 0.0	 0.0	 1	    1.04998	   -6.03447	 400.0	 2	    1.05000	    0.95000;
	80	 1	 0.00	 0.00	 0.0	 0.0	 1	    1.10351	   -7.28536	 220.0	 2	    1.11000	    0.95000;
	81	 1	 0.00	 0.00	 0.0	 0.0	 1	    1.10303	   -7.67354	 220.0	 2	    1.11000	    0.95000;
	82	 1	 0.00	 0.00	 0.0	 0.0	 1	    1.06677	  -12.51287	 220.0	 2	    1.11000	    0.95000;
	83	 1	 0.00	 0.00	 0.0	 0.0	 1	    1.08397	   -5.16043	 220.0	 3	    1.11000	    0.95000;
	84	 1	 7.57	 2.01	 0.0	 0.0	 1	    1.09598	   -8.62135	 220.0	 3	    1.11000	    0.95000;
	85	 1	 16.40	 5.02	 0.0	 0.0	 1	    1.09576	   -8.63832	 220.0	 3	    1.11000	    0.95000;
	86	 1	 0.00	 0.00	 0.0	 0.0	 1	    1.06229	   -6.68995	 220.0	 3	    1.11000	    0.95000;
	87	 1	 0.00	 0.00	 0.0	 0.0	 1	    1.06246	   -6.67665	 220.0	 3	    1.11000	    0.95000;
	88	 1	 0.00	 0.00	 0.0	 0.0	 1	    1.09107	   -5.01704	 220.0	 3	    1.11000	    0.95000;
	89	 1	 0.00	 0.00	 0.0	 0.0	 1	    1.09100	   -5.01712	 220.0	 3	    1.11000	    0.95000;
	90	 1	 0.00	 0.00	 0.0	 0.0	 1	    1.02889	   -8.74319	 220.0	 3	    1.11000	    0.95000;
	91	 1	 0.00	 0.00	 0.0	 0.0	 1	    1.02866	   -8.74551	 220.0	 3	    1.11000	    0.95000;
	92	 2	 33.06	 70.00	 0.0	 0.0	 1	    1.07989	   -5.34713	 220.0	 3	    1.11000	    0.95000;
	93	 2	 33.06	 68.00	 0.0	 0.0	 1	    1.07368	   -5.27830	 220.0	 3	    1.11000	    0.95000;
	94	 1	 3.28	 1.91	 0.0	 0.0	 1	    1.06664	   -6.38591	 220.0	 3	    1.11000	    0.95000;
	95	 1	 0.00	 0.00	 0.0	 0.0	 1	    1.06659	   -6.38655	 220.0	 3	    1.11000	    0.95000;
	96	 2	 37.78	 142.00	 0.0	 0.0	 1	    1.04190	   -3.37958	 400.0	 3	    1.05000	    0.95000;
	97	 1	 0.00	 0.00	 0.0	 0.0	 1	    1.04197	   -3.38631	 400.0	 3	    1.05000	    0.95000;
	98	 1	 0.00	 0.00	 0.0	 0.0	 1	    1.06343	   -8.02458	 220.0	 3	    1.11000	    0.95000;
	99	 1	 0.00	 0.00	 0.0	 0.0	 1	    1.06584	   -5.74473	 220.0	 3	    1.11000	    0.95000;
	100	 1	 0.00	 0.00	 0.0	 0.0	 1	    1.06573	   -5.74560	 220.0	 3	    1.11000	    0.95000;
	101	 1	 38.80	 -2.70	 0.0	 0.0	 1	    1.08663	   -5.07780	 220.0	 3	    1.11000	    0.95000;
	102	 1	 0.00	 0.00	 0.0	 0.0	 1	    1.08659	   -5.08356	 220.0	 3	    1.11000	    0.95000;
	103	 1	 0.00	 0.00	 0.0	 0.0	 1	    1.07845	   -5.44064	 220.0	 3	    1.11000	    0.95000;
	104	 1	 0.00	 0.00	 0.0	 0.0	 1	    1.07836	   -5.45156	 220.0	 3	    1.11000	    0.95000;
	105	 1	 0.00	 0.00	 0.0	 0.0	 1	    1.08864	   -4.62090	 220.0	 3	    1.11000	    0.95000;
	106	 1	 0.00	 0.00	 0.0	 0.0	 1	    1.08870	   -4.61937	 220.0	 3	    1.11000	    0.95000;
	107	 1	 0.00	 0.00	 0.0	 0.0	 1	    1.04796	   -2.66584	 400.0	 3	    1.05000	    0.95000;
	108	 1	 0.00	 0.00	 0.0	 0.0	 1	    1.04797	   -2.66113	 400.0	 3	    1.05000	    0.95000;
	109	 1	 0.00	 0.00	 0.0	 0.0	 1	    1.07240	   -5.64249	 220.0	 3	    1.11000	    0.95000;
	110	 1	 0.00	 0.00	 0.0	 0.0	 1	    1.07221	   -5.64548	 220.0	 3	    1.11000	    0.95000;
	111	 1	 0.00	 0.00	 0.0	 0.0	 1	    1.07760	   -6.03372	 220.0	 3	    1.11000	    0.95000;
	112	 1	 0.00	 0.00	 0.0	 0.0	 1	    1.07754	   -6.04376	 220.0	 3	    1.11000	    0.95000;
	113	 2	 45.35	 12.71	 0.0	 0.0	 1	    1.08115	   -6.17615	 220.0	 3	    1.11000	    0.95000;
	114	 1	 0.00	 0.00	 0.0	 0.0	 1	    1.08117	   -6.17865	 220.0	 3	    1.11000	    0.95000;
	115	 1	 0.00	 0.00	 0.0	 0.0	 1	    1.09609	   -8.60187	 220.0	 3	    1.11000	    0.95000;
	116	 1	 0.00	 0.00	 0.0	 0.0	 1	    1.09610	   -8.60432	 220.0	 3	    1.11000	    0.95000;
	117	 1	 0.00	 0.00	 0.0	 0.0	 1	    1.01596	   -8.83519	 220.0	 3	    1.11000	    0.95000;
	118	 1	 0.00	 0.00	 0.0	 0.0	 1	    1.01588	   -8.83256	 220.0	 3	    1.11000	    0.95000;
	119	 2	 11.81	 44.00	 0.0	 0.0	 1	    1.07549	   -5.59269	 220.0	 3	    1.11000	    0.95000;
	120	 2	 11.81	 44.00	 0.0	 0.0	 1	    1.07529	   -5.62283	 220.0	 3	    1.11000	    0.95000;
	121	 2	 8.27	 18.00	 0.0	 0.0	 1	    1.08725	   -4.68928	 220.0	 3	    1.11000	    0.95000;
	122	 2	 9.45	 21.00	 0.0	 0.0	 1	    1.08715	   -4.66506	 220.0	 3	    1.11000	    0.95000;
	123	 1	 0.00	 0.00	 0.0	 0.0	 1	    1.08273	   -6.45482	 220.0	 3	    1.11000	    0.95000;
	124	 1	 70.14	 11.61	 0.0	 0.0	 1	    1.08273	   -6.46318	 220.0	 3	    1.11000	    0.95000;
	125	 1	 0.00	 0.00	 0.0	 0.0	 1	    1.04444	   -8.63245	 220.0	 3	    1.11000	    0.95000;
	126	 1	 0.00	 0.00	 0.0	 0.0	 1	    1.07616	   -6.23121	 220.0	 3	    1.11000	    0.95000;
	127	 1	 0.00	 0.00	 0.0	 0.0	 1	    1.07612	   -6.23224	 220.0	 3	    1.11000	    0.95000;
	128	 1	 0.00	 0.00	 0.0	 0.0	 1	    1.06293	   -6.42035	 220.0	 3	    1.11000	    0.95000;
	129	 1	 0.00	 0.00	 0.0	 0.0	 1	    1.06305	   -6.41182	 220.0	 3	    1.11000	    0.95000;
	130	 1	 0.00	 0.00	 0.0	 0.0	 1	    1.03806	   -4.36859	 400.0	 3	    1.05000	    0.95000;
	131	 1	 0.00	 0.00	 0.0	 0.0	 1	    1.03806	   -4.36859	 400.0	 3	    1.05000	    0.95000;
	132	 2	 0.00	 1.78	 0.0	 0.0	 1	    1.08409	   -6.11959	 220.0	 3	    1.11000	    0.95000;
	133	 2	 10.63	 20.00	 0.0	 0.0	 1	    1.08422	   -6.12132	 220.0	 3	    1.11000	    0.95000;
	134	 2	 7.08	 15.00	 0.0	 0.0	 1	    1.06768	   -6.85447	 220.0	 3	    1.11000	    0.95000;
	135	 1	 0.00	 0.00	 0.0	 0.0	 1	    1.06764	   -6.86414	 220.0	 3	    1.11000	    0.95000;
	136	 1	 0.00	 0.00	 0.0	 0.0	 1	    1.04834	   -6.02787	 400.0	 3	    1.05000	    0.95000;
	137	 1	 0.00	 0.00	 0.0	 0.0	 1	    1.04838	   -6.02504	 400.0	 3	    1.05000	    0.95000;
	138	 1	 0.00	 0.00	 0.0	 0.0	 1	    1.04940	   -4.60843	 400.0	 3	    1.05000	    0.95000;
	139	 1	 0.00	 0.00	 0.0	 0.0	 1	    1.04944	   -4.60458	 400.0	 3	    1.05000	    0.95000;
	140	 1	 0.00	 0.00	 0.0	 0.0	 1	    1.03859	   -8.78115	 220.0	 3	    1.11000	    0.95000;
	141	 1	 0.00	 0.00	 0.0	 0.0	 1	    1.03866	   -8.77334	 220.0	 3	    1.11000	    0.95000;
	142	 2	 21.49	 37.21	 0.0	 0.0	 1	    1.10977	   -4.92943	 220.0	 3	    1.11000	    0.95000;
	143	 2	 49.03	 73.01	 0.0	 0.0	 1	    1.11000	   -4.92075	 220.0	 3	    1.11000	    0.95000;
	144	 2	 33.06	 66.00	 0.0	 0.0	 1	    1.03914	   -3.06250	 400.0	 3	    1.05000	    0.95000;
	145	 1	 0.00	 0.00	 0.0	 0.0	 1	    1.03915	   -3.07494	 400.0	 3	    1.05000	    0.95000;
	146	 1	 0.00	 0.00	 0.0	 0.0	 1	    1.08581	   -5.19678	 220.0	 3	    1.11000	    0.95000;
	147	 1	 0.00	 0.00	 0.0	 0.0	 1	    1.08584	   -5.19310	 220.0	 3	    1.11000	    0.95000;
	148	 1	 0.00	 0.00	 0.0	 0.0	 1	    1.07031	   -5.48863	 220.0	 3	    1.11000	    0.95000;
	149	 1	 0.00	 0.00	 0.0	 0.0	 1	    1.08726	   -4.90101	 220.0	 3	    1.11000	    0.95000;
	150	 2	 0.00	 -0.79	 0.0	 0.0	 1	    1.02897	   -8.74378	 220.0	 3	    1.11000	    0.95000;
	151	 2	 0.00	 -0.79	 0.0	 0.0	 1	    1.02873	   -8.74611	 220.0	 3	    1.11000	    0.95000;
	152	 2	 9.09	 20.00	 0.0	 0.0	 1	    1.08258	   -6.40903	 220.0	 4	    1.11000	    0.95000;
	153	 2	 9.21	 20.00	 0.0	 0.0	 1	    1.08257	   -6.41239	 220.0	 4	    1.11000	    0.95000;
	154	 1	 0.00	 0.00	 0.0	 0.0	 1	    1.04876	   -9.10461	 220.0	 4	    1.11000	    0.95000;
	155	 1	 0.00	 0.00	 0.0	 0.0	 1	    1.04878	   -9.10970	 220.0	 4	    1.11000	    0.95000;
	156	 1	 0.00	 0.00	 0.0	 0.0	 1	    1.03017	  -11.20129	 220.0	 4	    1.11000	    0.95000;
	157	 1	 0.00	 0.00	 0.0	 0.0	 1	    1.05401	   -7.86346	 220.0	 4	    1.11000	    0.95000;
	158	 1	 0.00	 0.00	 0.0	 0.0	 1	    1.05399	   -7.87026	 220.0	 4	    1.11000	    0.95000;
	159	 1	 0.00	 0.00	 0.0	 0.0	 1	    1.02939	   -5.96361	 400.0	 4	    1.05000	    0.95000;
	160	 1	 0.00	 0.00	 0.0	 0.0	 1	    1.02939	   -5.96705	 400.0	 4	    1.05000	    0.95000;
	161	 1	 0.00	 0.00	 0.0	 0.0	 1	    1.04485	  -11.98758	 220.0	 4	    1.11000	    0.95000;
	162	 1	 0.00	 0.00	 0.0	 0.0	 1	    1.08132	  -16.00677	 220.0	 4	    1.11000	    0.95000;
	163	 1	 0.00	 0.00	 0.0	 0.0	 1	    1.08132	  -16.00677	 220.0	 4	    1.11000	    0.95000;
	164	 1	 0.00	 0.00	 0.0	 0.0	 1	    1.06555	  -11.37318	 220.0	 4	    1.11000	    0.95000;
	165	 1	 0.00	 0.00	 0.0	 0.0	 1	    1.06555	  -11.37318	 220.0	 4	    1.11000	    0.95000;
	166	 1	 0.00	 0.00	 0.0	 0.0	 1	    1.02734	  -11.47846	 220.0	 4	    1.11000	    0.95000;
	167	 2	 0.00	 -13.01	 0.0	 0.0	 1	    1.07366	   -9.01183	 220.0	 4	    1.11000	    0.95000;
	168	 1	 0.00	 0.00	 0.0	 0.0	 1	    1.07373	   -9.01291	 220.0	 4	    1.11000	    0.95000;
	169	 2	 14.17	 30.00	 0.0	 0.0	 1	    1.08876	  -16.47275	 220.0	 4	    1.11000	    0.95000;
	170	 2	 23.51	 36.57	 0.0	 0.0	 1	    1.08897	  -16.45829	 220.0	 4	    1.11000	    0.95000;
	171	 2	 14.17	 30.00	 0.0	 0.0	 1	    1.02746	  -15.42449	 400.0	 4	    1.05000	    0.95000;
	172	 2	 14.17	 30.00	 0.0	 0.0	 1	    1.02751	  -15.41723	 400.0	 4	    1.05000	    0.95000;
	173	 1	 0.00	 0.00	 0.0	 0.0	 1	    1.01073	  -12.45564	 220.0	 4	    1.11000	    0.95000;
	174	 1	 0.00	 0.00	 0.0	 0.0	 1	    1.01079	  -12.45651	 220.0	 4	    1.11000	    0.95000;
	175	 1	 0.00	 0.00	 0.0	 0.0	 1	    1.02496	  -12.32322	 220.0	 4	    1.11000	    0.95000;
	176	 1	 0.00	 0.00	 0.0	 0.0	 1	    1.02507	  -12.31129	 220.0	 4	    1.11000	    0.95000;
	177	 2	 36.01	 64.20	 0.0	 0.0	 1	    1.05125	   -6.00722	 220.0	 4	    1.11000	    0.95000;
	178	 2	 69.55	 96.00	 0.0	 0.0	 1	    1.05099	   -6.00423	 220.0	 4	    1.11000	    0.95000;
	179	 1	 0.00	 0.00	 0.0	 0.0	 1	    1.05099	   -6.00423	 220.0	 4	    1.11000	    0.95000;
	180	 2	 31.29	 64.20	 0.0	 0.0	 1	    1.02747	   -2.49095	 400.0	 4	    1.05000	    0.95000;
	181	 1	 0.00	 0.00	 0.0	 0.0	 1	    1.02741	   -2.48820	 400.0	 4	    1.05000	    0.95000;
	182	 1	 0.00	 0.00	 0.0	 0.0	 1	    1.07904	  -16.58567	 220.0	 4	    1.11000	    0.95000;
	183	 1	 0.00	 0.00	 0.0	 0.0	 1	    1.07904	  -16.58567	 220.0	 4	    1.11000	    0.95000;
	184	 1	 0.00	 0.00	 0.0	 0.0	 1	    1.03750	   -4.52927	 400.0	 4	    1.05000	    0.95000;
	185	 1	 0.00	 0.00	 0.0	 0.0	 1	    1.01767	   -8.88950	 400.0	 4	    1.05000	    0.95000;
	186	 1	 0.00	 0.00	 0.0	 0.0	 1	    1.03460	   -5.62804	 400.0	 4	    1.05000	    0.95000;
	187	 1	 0.00	 0.00	 0.0	 0.0	 1	    1.03463	   -5.62232	 400.0	 4	    1.05000	    0.95000;
	188	 2	 14.17	 30.00	 0.0	 0.0	 1	    1.07463	   -9.00769	 220.0	 4	    1.11000	    0.95000;
	189	 2	 28.10	 60.00	 0.0	 0.0	 1	    1.07463	   -9.00995	 220.0	 4	    1.11000	    0.95000;
	190	 2	 44.87	 64.00	 0.0	 0.0	 1	    0.98157	   -3.84370	 400.0	 4	    1.05000	    0.95000;
	191	 1	 0.00	 0.00	 0.0	 0.0	 1	    1.03330	  -18.77769	 220.0	 4	    1.11000	    0.95000;
	192	 1	 0.00	 0.00	 0.0	 0.0	 1	    1.03333	  -18.78936	 220.0	 4	    1.11000	    0.95000;
	193	 1	 0.00	 0.00	 0.0	 0.0	 1	    1.08358	  -15.64342	 220.0	 4	    1.11000	    0.95000;
	194	 1	 0.00	 0.00	 0.0	 0.0	 1	    1.08360	  -15.64009	 220.0	 4	    1.11000	    0.95000;
	195	 1	 0.00	 0.00	 0.0	 0.0	 1	    1.04668	  -12.32742	 220.0	 4	    1.11000	    0.95000;
	196	 1	 0.00	 0.00	 0.0	 0.0	 1	    1.04654	  -12.33869	 220.0	 4	    1.11000	    0.95000;
	197	 1	 0.00	 0.00	 0.0	 0.0	 1	    1.00760	  -10.50184	 400.0	 4	    1.05000	    0.95000;
	198	 1	 0.00	 0.00	 0.0	 0.0	 1	    1.01798	  -11.65120	 220.0	 4	    1.11000	    0.95000;
	199	 1	 0.00	 0.00	 0.0	 0.0	 1	    1.01796	  -11.64830	 220.0	 4	    1.11000	    0.95000;
	200	 1	 0.00	 0.00	 0.0	 0.0	 1	    1.03970	  -12.50681	 220.0	 4	    1.11000	    0.95000;
...
];

%% generator data
%	bus	Pg	Qg	Qmax	Qmin	Vg	mBase	status	Pmax	Pmin	Pc1	Pc2	Qc1min	Qc1max	Qc2min	Qc2max	ramp_agc	ramp_10	ramp_30	ramp_q	apf
mpc.gen = [
	22	 389.0	 -194.998	 195.0	 -195.0	 1.04236	 235.0	 1	 389	 55.0	 0.0	 0.0	 0.0	 0.0	 0.0	 0.0	 0.0	 0.0	 0.0	 0.0	 0.0; % COW
	23	 470.973	 79.156	 273.0	 -273.0	 1.04265	 235.0	 1	 546	 70.0	 0.0	 0.0	 0.0	 0.0	 0.0	 0.0	 0.0	 0.0	 0.0	 0.0	 0.0; % COW
	35	 0.0	 0.0	 190.0	 -24.0	 1.0837	 426.0	 0	 47	 240.0	 0.0	 0.0	 0.0	 0.0	 0.0	 0.0	 0.0	 0.0	 0.0	 0.0	 0.0; % NG
	35	 0.0	 0.0	 190.0	 -72.0	 1.0837	 426.0	 0	 144	 120.0	 0.0	 0.0	 0.0	 0.0	 0.0	 0.0	 0.0	 0.0	 0.0	 0.0	 0.0; % NG
	35	 120.0	 -148.998	 190.0	 -149.0	 1.0837	 426.0	 1	 298	 120.0	 0.0	 0.0	 0.0	 0.0	 0.0	 0.0	 0.0	 0.0	 0.0	 0.0	 0.0; % NG
	36	 120.0	 64.862	 190.0	 -143.0	 1.11	 426.0	 1	 286	 120.0	 0.0	 0.0	 0.0	 0.0	 0.0	 0.0	 0.0	 0.0	 0.0	 0.0	 0.0; % NG
	36	 505.0	 89.147	 253.0	 -253.0	 1.11	 426.0	 1	 505	 120.0	 0.0	 0.0	 0.0	 0.0	 0.0	 0.0	 0.0	 0.0	 0.0	 0.0	 0.0; % COW
	37	 293.0	 49.195	 190.0	 -147.0	 1.04994	 426.0	 1	 293	 120.0	 0.0	 0.0	 0.0	 0.0	 0.0	 0.0	 0.0	 0.0	 0.0	 0.0	 0.0; % COW
	37	 120.0	 49.195	 190.0	 -147.0	 1.04994	 426.0	 1	 294	 120.0	 0.0	 0.0	 0.0	 0.0	 0.0	 0.0	 0.0	 0.0	 0.0	 0.0	 0.0; % NG
	37	 578.0	 77.683	 289.0	 -289.0	 1.04994	 426.0	 1	 578	 120.0	 0.0	 0.0	 0.0	 0.0	 0.0	 0.0	 0.0	 0.0	 0.0	 0.0	 0.0; % NG
	38	 120.0	 12.183	 190.0	 -165.0	 1.05	 426.0	 1	 330	 120.0	 0.0	 0.0	 0.0	 0.0	 0.0	 0.0	 0.0	 0.0	 0.0	 0.0	 0.0; % NG
	38	 405.0	 -0.414	 203.0	 -203.0	 1.05	 426.0	 1	 405	 120.0	 0.0	 0.0	 0.0	 0.0	 0.0	 0.0	 0.0	 0.0	 0.0	 0.0	 0.0; % COW
	38	 1289.0	 -4.183	 645.0	 -645.0	 1.05	 426.0	 1	 1289	 120.0	 0.0	 0.0	 0.0	 0.0	 0.0	 0.0	 0.0	 0.0	 0.0	 0.0	 0.0; % COW
	55	 55.0	 55.811	 152.0	 -110.0	 1.09899	 235.0	 1	 220	 55.0	 0.0	 0.0	 0.0	 0.0	 0.0	 0.0	 0.0	 0.0	 0.0	 0.0	 0.0; % NG
	55	 0.0	 0.0	 152.0	 -33.0	 1.09899	 235.0	 0	 58	 125.0	 0.0	 0.0	 0.0	 0.0	 0.0	 0.0	 0.0	 0.0	 0.0	 0.0	 0.0; % NG
	56	 0.0	 0.0	 149.0	 -39.0	 1.09889	 235.0	 0	 77	 62.5	 0.0	 0.0	 0.0	 0.0	 0.0	 0.0	 0.0	 0.0	 0.0	 0.0	 0.0; % NG
	56	 278.0	 78.14	 149.0	 -177.6	 1.09889	 235.0	 1	 278	 55.0	 0.0	 0.0	 0.0	 0.0	 0.0	 0.0	 0.0	 0.0	 0.0	 0.0	 0.0; % NG
	57	 55.0	 -22.653	 178.0	 -178.0	 1.09901	 235.0	 1	 356	 55.0	 0.0	 0.0	 0.0	 0.0	 0.0	 0.0	 0.0	 0.0	 0.0	 0.0	 0.0; % NG
	57	 60.0	 5.64	 149.0	 -113.0	 1.09901	 235.0	 1	 225	 60.0	 0.0	 0.0	 0.0	 0.0	 0.0	 0.0	 0.0	 0.0	 0.0	 0.0	 0.0; % NG
	58	 365.0	 79.731	 363.0	 -183.0	 1.05	 588.0	 1	 365	 127.5	 0.0	 0.0	 0.0	 0.0	 0.0	 0.0	 0.0	 0.0	 0.0	 0.0	 0.0; % NG
	59	 125.0	 176.277	 348.0	 -282.0	 1.04999	 588.0	 1	 563	 125.0	 0.0	 0.0	 0.0	 0.0	 0.0	 0.0	 0.0	 0.0	 0.0	 0.0	 0.0; % COW
	68	 64.5	 -21.493	 120.0	 -103.0	 1.11	 235.0	 1	 206	 64.5	 0.0	 0.0	 0.0	 0.0	 0.0	 0.0	 0.0	 0.0	 0.0	 0.0	 0.0; % NG
	69	 64.5	 23.602	 120.0	 -120.0	 1.10995	 235.0	 1	 239	 64.5	 0.0	 0.0	 0.0	 0.0	 0.0	 0.0	 0.0	 0.0	 0.0	 0.0	 0.0; % NG
	69	 64.5	 35.23	 148.0	 -148.0	 1.10995	 235.0	 1	 296	 64.5	 0.0	 0.0	 0.0	 0.0	 0.0	 0.0	 0.0	 0.0	 0.0	 0.0	 0.0; % NG
	70	 0.0	 0.0	 120.0	 -14.0	 1.04223	 235.0	 0	 11	 129.0	 0.0	 0.0	 0.0	 0.0	 0.0	 0.0	 0.0	 0.0	 0.0	 0.0	 0.0; % NG
	70	 0.0	 0.0	 120.0	 -14.0	 1.04223	 235.0	 0	 2	 129.0	 0.0	 0.0	 0.0	 0.0	 0.0	 0.0	 0.0	 0.0	 0.0	 0.0	 0.0; % NG
	71	 331.0	 -18.742	 166.0	 -166.0	 1.04228	 235.0	 1	 331	 64.5	 0.0	 0.0	 0.0	 0.0	 0.0	 0.0	 0.0	 0.0	 0.0	 0.0	 0.0; % NG
	71	 289.0	 -14.343	 145.0	 -145.0	 1.04228	 235.0	 1	 289	 64.5	 0.0	 0.0	 0.0	 0.0	 0.0	 0.0	 0.0	 0.0	 0.0	 0.0	 0.0; % COW
	92	 455.0	 122.161	 228.0	 -228.0	 1.07989	 271.0	 1	 455	 70.0	 0.0	 0.0	 0.0	 0.0	 0.0	 0.0	 0.0	 0.0	 0.0	 0.0	 0.0; % NG
	92	 70.0	 61.641	 150.0	 -150.0	 1.07989	 271.0	 1	 299	 70.0	 0.0	 0.0	 0.0	 0.0	 0.0	 0.0	 0.0	 0.0	 0.0	 0.0	 0.0; % NG
	93	 0.0	 0.0	 131.0	 -18.0	 1.07368	 271.0	 0	 35	 140.0	 0.0	 0.0	 0.0	 0.0	 0.0	 0.0	 0.0	 0.0	 0.0	 0.0	 0.0; % NG
	93	 293.0	 23.158	 147.0	 -147.0	 1.07368	 271.0	 1	 293	 70.0	 0.0	 0.0	 0.0	 0.0	 0.0	 0.0	 0.0	 0.0	 0.0	 0.0	 0.0; % COW
	93	 226.0	 14.678	 131.0	 -141.6	 1.07368	 271.0	 1	 226	 70.0	 0.0	 0.0	 0.0	 0.0	 0.0	 0.0	 0.0	 0.0	 0.0	 0.0	 0.0; % NG
	96	 108.898	 -28.999	 213.0	 -101.0	 1.0419	 426.0	 1	 201	 90.0	 0.0	 0.0	 0.0	 0.0	 0.0	 0.0	 0.0	 0.0	 0.0	 0.0	 0.0; % NG
	96	 364.0	 -104.572	 212.0	 -182.0	 1.0419	 435.0	 1	 364	 90.0	 0.0	 0.0	 0.0	 0.0	 0.0	 0.0	 0.0	 0.0	 0.0	 0.0	 0.0; % NG
	113	 0.0	 0.0	 149.0	 -149.0	 1.08115	 12.0	 0	 298	 0.0	 0.0	 0.0	 0.0	 0.0	 0.0	 0.0	 0.0	 0.0	 0.0	 0.0	 0.0; % COW
	113	 0.0	 0.0	 25.0	 -25.0	 1.08115	 6.0	 0	 49	 0.0	 0.0	 0.0	 0.0	 0.0	 0.0	 0.0	 0.0	 0.0	 0.0	 0.0	 0.0; % NG
	113	 0.0	 41.416	 73.0	 -73.0	 1.08115	 26.0	 1	 145	 0.0	 0.0	 0.0	 0.0	 0.0	 0.0	 0.0	 0.0	 0.0	 0.0	 0.0	 0.0; % PEL
	119	 284.0	 141.951	 142.0	 -142.0	 1.07549	 271.0	 1	 284	 60.0	 0.0	 0.0	 0.0	 0.0	 0.0	 0.0	 0.0	 0.0	 0.0	 0.0	 0.0; % COW
	120	 60.0	 -25.726	 174.0	 -174.0	 1.07529	 271.0	 1	 235	 60.0	 0.0	 0.0	 0.0	 0.0	 0.0	 0.0	 0.0	 0.0	 0.0	 0.0	 0.0; % NG
	121	 35.0	 92.189	 149.0	 -149.0	 1.08725	 150.0	 1	 298	 35.0	 0.0	 0.0	 0.0	 0.0	 0.0	 0.0	 0.0	 0.0	 0.0	 0.0	 0.0; % COW
	122	 426.734	 107.78	 238.0	 -238.0	 1.08715	 150.0	 1	 476	 35.0	 0.0	 0.0	 0.0	 0.0	 0.0	 0.0	 0.0	 0.0	 0.0	 0.0	 0.0; % COW
	132	 0.0	 0.0	 79.0	 -13.0	 1.08409	 150.0	 0	 25	 70.0	 0.0	 0.0	 0.0	 0.0	 0.0	 0.0	 0.0	 0.0	 0.0	 0.0	 0.0; % NG
	133	 35.0	 226.567	 475.2	 -475.2	 1.08422	 150.0	 1	 175	 35.0	 0.0	 0.0	 0.0	 0.0	 0.0	 0.0	 0.0	 0.0	 0.0	 0.0	 0.0; % NG
	134	 290.0	 178.8	 178.8	 -178.8	 1.06768	 118.0	 1	 290	 40.0	 0.0	 0.0	 0.0	 0.0	 0.0	 0.0	 0.0	 0.0	 0.0	 0.0	 0.0; % NG
	142	 67.5	 236.55	 650.4	 -650.4	 1.10977	 271.0	 1	 240	 67.5	 0.0	 0.0	 0.0	 0.0	 0.0	 0.0	 0.0	 0.0	 0.0	 0.0	 0.0; % NG
	143	 67.5	 233.993	 234.0	 -234.0	 1.11	 271.0	 1	 317	 67.5	 0.0	 0.0	 0.0	 0.0	 0.0	 0.0	 0.0	 0.0	 0.0	 0.0	 0.0; % NG
	143	 233.0	 233.993	 234.0	 -234.0	 1.11	 271.0	 1	 233	 67.5	 0.0	 0.0	 0.0	 0.0	 0.0	 0.0	 0.0	 0.0	 0.0	 0.0	 0.0; % NG
	144	 234.0	 -61.652	 140.0	 -139.2	 1.03914	 271.0	 1	 234	 67.5	 0.0	 0.0	 0.0	 0.0	 0.0	 0.0	 0.0	 0.0	 0.0	 0.0	 0.0; % NG
	144	 222.0	 -62.041	 137.0	 -139.2	 1.03914	 271.0	 1	 222	 67.5	 0.0	 0.0	 0.0	 0.0	 0.0	 0.0	 0.0	 0.0	 0.0	 0.0	 0.0; % NG
	150	 0.0	 0.0	 141.0	 -141.0	 1.02897	 150.0	 0	 282	 -135.0	 0.0	 0.0	 0.0	 0.0	 0.0	 0.0	 0.0	 0.0	 0.0	 0.0	 0.0; % NG
	150	 0.0	 0.0	 111.0	 -111.0	 1.02897	 150.0	 0	 221	 -135.0	 0.0	 0.0	 0.0	 0.0	 0.0	 0.0	 0.0	 0.0	 0.0	 0.0	 0.0; % COW
	151	 0.0	 0.0	 72.0	 -44.0	 1.02873	 150.0	 0	 87	 -135.0	 0.0	 0.0	 0.0	 0.0	 0.0	 0.0	 0.0	 0.0	 0.0	 0.0	 0.0; % NG
	151	 0.0	 0.0	 72.0	 -29.0	 1.02873	 150.0	 0	 19	 -135.0	 0.0	 0.0	 0.0	 0.0	 0.0	 0.0	 0.0	 0.0	 0.0	 0.0	 0.0; % NG
	152	 169.0	 42.888	 85.0	 -85.0	 1.08258	 150.0	 1	 169	 50.0	 0.0	 0.0	 0.0	 0.0	 0.0	 0.0	 0.0	 0.0	 0.0	 0.0	 0.0; % NG
	152	 0.0	 0.0	 95.0	 -95.0	 1.08258	 150.0	 0	 189	 50.0	 0.0	 0.0	 0.0	 0.0	 0.0	 0.0	 0.0	 0.0	 0.0	 0.0	 0.0; % NG
	153	 136.0	 38.917	 85.0	 -68.0	 1.08257	 150.0	 1	 136	 50.0	 0.0	 0.0	 0.0	 0.0	 0.0	 0.0	 0.0	 0.0	 0.0	 0.0	 0.0; % COW
	167	 0.0	 0.0	 12.0	 -2.0	 1.07366	 51.0	 0	 4	 40.0	 0.0	 0.0	 0.0	 0.0	 0.0	 0.0	 0.0	 0.0	 0.0	 0.0	 0.0; % NG
	169	 67.5	 6.876	 148.0	 -148.0	 1.08876	 238.0	 1	 295	 67.5	 0.0	 0.0	 0.0	 0.0	 0.0	 0.0	 0.0	 0.0	 0.0	 0.0	 0.0; % NG
	170	 0.0	 0.0	 102.0	 -37.0	 1.08897	 252.0	 0	 74	 45.0	 0.0	 0.0	 0.0	 0.0	 0.0	 0.0	 0.0	 0.0	 0.0	 0.0	 0.0; % NG
	170	 0.0	 0.0	 361.0	 -361.0	 1.08897	 238.0	 0	 722	 67.5	 0.0	 0.0	 0.0	 0.0	 0.0	 0.0	 0.0	 0.0	 0.0	 0.0	 0.0; % COW
	170	 290.0	 98.933	 145.0	 -145.0	 1.08897	 252.0	 1	 290	 50.0	 0.0	 0.0	 0.0	 0.0	 0.0	 0.0	 0.0	 0.0	 0.0	 0.0	 0.0; % COW
	171	 45.0	 -37.633	 102.0	 -82.0	 1.02746	 252.0	 1	 163	 45.0	 0.0	 0.0	 0.0	 0.0	 0.0	 0.0	 0.0	 0.0	 0.0	 0.0	 0.0; % NG
	172	 0.0	 0.0	 93.0	 -12.0	 1.02751	 252.0	 0	 24	 100.0	 0.0	 0.0	 0.0	 0.0	 0.0	 0.0	 0.0	 0.0	 0.0	 0.0	 0.0; % COW
	172	 45.0	 75.963	 102.0	 -100.0	 1.02751	 252.0	 1	 199	 45.0	 0.0	 0.0	 0.0	 0.0	 0.0	 0.0	 0.0	 0.0	 0.0	 0.0	 0.0; % NG
	177	 52.0	 -51.1	 247.0	 -247.0	 1.05125	 287.0	 1	 493	 52.0	 0.0	 0.0	 0.0	 0.0	 0.0	 0.0	 0.0	 0.0	 0.0	 0.0	 0.0; % COW
	177	 47.0	 -1.926	 145.0	 -118.8	 1.05125	 264.0	 1	 149	 47.0	 0.0	 0.0	 0.0	 0.0	 0.0	 0.0	 0.0	 0.0	 0.0	 0.0	 0.0; % NG
	178	 0.0	 0.0	 159.0	 -159.0	 1.05099	 238.0	 0	 318	 60.0	 0.0	 0.0	 0.0	 0.0	 0.0	 0.0	 0.0	 0.0	 0.0	 0.0	 0.0; % NG
	178	 120.0	 -81.087	 145.0	 -91.2	 1.05099	 264.0	 1	 120	 47.0	 0.0	 0.0	 0.0	 0.0	 0.0	 0.0	 0.0	 0.0	 0.0	 0.0	 0.0; % NG
	178	 52.0	 -102.879	 127.0	 -113.0	 1.05099	 287.0	 1	 226	 52.0	 0.0	 0.0	 0.0	 0.0	 0.0	 0.0	 0.0	 0.0	 0.0	 0.0	 0.0; % NG
	178	 52.0	 -81.125	 127.0	 -91.2	 1.05099	 287.0	 1	 133	 52.0	 0.0	 0.0	 0.0	 0.0	 0.0	 0.0	 0.0	 0.0	 0.0	 0.0	 0.0; % NG
	180	 60.0	 123.999	 124.0	 -124.0	 1.02747	 238.0	 1	 247	 60.0	 0.0	 0.0	 0.0	 0.0	 0.0	 0.0	 0.0	 0.0	 0.0	 0.0	 0.0; % NG
	180	 60.0	 119.999	 120.0	 -120.0	 1.02747	 238.0	 1	 240	 60.0	 0.0	 0.0	 0.0	 0.0	 0.0	 0.0	 0.0	 0.0	 0.0	 0.0	 0.0; % NG
	188	 75.0	 91.316	 145.2	 -145.2	 1.07463	 233.0	 1	 244	 75.0	 0.0	 0.0	 0.0	 0.0	 0.0	 0.0	 0.0	 0.0	 0.0	 0.0	 0.0; % NG
	189	 433.0	 48.711	 217.0	 -217.0	 1.07463	 233.0	 1	 433	 75.0	 0.0	 0.0	 0.0	 0.0	 0.0	 0.0	 0.0	 0.0	 0.0	 0.0	 0.0; % NG
	189	 0.0	 0.0	 112.0	 -32.0	 1.07463	 233.0	 0	 51	 150.0	 0.0	 0.0	 0.0	 0.0	 0.0	 0.0	 0.0	 0.0	 0.0	 0.0	 0.0; % NG
	189	 75.0	 105.733	 329.0	 -329.0	 1.07463	 233.0	 1	 657	 75.0	 0.0	 0.0	 0.0	 0.0	 0.0	 0.0	 0.0	 0.0	 0.0	 0.0	 0.0; % NG
	190	 361.0	 92.572	 294.0	 -259.0	 0.98157	 464.0	 1	 361	 93.0	 0.0	 0.0	 0.0	 0.0	 0.0	 0.0	 0.0	 0.0	 0.0	 0.0	 0.0; % NG
	204	 0.0	 0.0	 100.0	 -100.0	 1.02634	 218.0	 0	 199	 38.0	 0.0	 0.0	 0.0	 0.0	 0.0	 0.0	 0.0	 0.0	 0.0	 0.0	 0.0; % COW
	236	 -171.315	 -32.818	 105.0	 -62.0	 1.01938	 209.0	 1	 107	 -200.0	 0.0	 0.0	 0.0	 0.0	 0.0	 0.0	 0.0	 0.0	 0.0	 0.0	 0.0; % NG
	236	 183.0	 -61.706	 105.0	 -92.0	 1.01938	 209.0	 1	 183	 -200.0	 0.0	 0.0	 0.0	 0.0	 0.0	 0.0	 0.0	 0.0	 0.0	 0.0	 0.0; % NG
	236	 76.0	 -44.46	 130.0	 -75.0	 1.01938	 209.0	 1	 76	 -200.0	 0.0	 0.0	 0.0	 0.0	 0.0	 0.0	 0.0	 0.0	 0.0	 0.0	 0.0; % NG
	237	 -200.0	 -30.507	 160.0	 -100.0	 1.01935	 209.0	 1	 52	 -200.0	 0.0	 0.0	 0.0	 0.0	 0.0	 0.0	 0.0	 0.0	 0.0	 0.0	 0.0; % NG
	240	 56.5	 15.533	 150.0	 -134.0	 1.07502	 156.0	 1	 267	 56.5	 0.0	 0.0	 0.0	 0.0	 0.0	 0.0	 0.0	 0.0	 0.0	 0.0	 0.0; % NG
	250	 0.0	 0.0	 90.0	 -90.0	 1.10639	 79.0	 0	 180	 11.5	 0.0	 0.0	 0.0	 0.0	 0.0	 0.0	 0.0	 0.0	 0.0	 0.0	 0.0; % NG
	250	 0.0	 0.0	 94.0	 -94.0	 1.10639	 69.0	 0	 188	 12.5	 0.0	 0.0	 0.0	 0.0	 0.0	 0.0	 0.0	 0.0	 0.0	 0.0	 0.0; % COW
	251	 3.5	 41.406	 67.0	 -67.0	 1.10664	 28.0	 1	 133	 3.5	 0.0	 0.0	 0.0	 0.0	 0.0	 0.0	 0.0	 0.0	 0.0	 0.0	 0.0; % PEL
	251	 0.0	 0.0	 37.0	 -37.0	 1.10664	 69.0	 0	 73	 12.5	 0.0	 0.0	 0.0	 0.0	 0.0	 0.0	 0.0	 0.0	 0.0	 0.0	 0.0; % NG
	267	 0.0	 1.197	 28.0	 -28.0	 1.11083	 1.0	 1	 56	 0.0	 0.0	 0.0	 0.0	 0.0	 0.0	 0.0	 0.0	 0.0	 0.0	 0.0	 0.0; % PEL
	268	 0.0	 2.567	 29.0	 -29.0	 1.10008	 1.0	 1	 57	 0.0	 0.0	 0.0	 0.0	 0.0	 0.0	 0.0	 0.0	 0.0	 0.0	 0.0	 0.0; % PEL
	282	 0.0	 0.0	 9.0	 -9.0	 1.10962	 10.0	 0	 18	 3.0	 0.0	 0.0	 0.0	 0.0	 0.0	 0.0	 0.0	 0.0	 0.0	 0.0	 0.0; % COW
	283	 0.0	 0.0	 11.0	 -11.0	 1.1094	 10.0	 0	 21	 3.0	 0.0	 0.0	 0.0	 0.0	 0.0	 0.0	 0.0	 0.0	 0.0	 0.0	 0.0; % NG
	301	 78.0	 -7.84	 39.0	 -39.0	 1.09939	 5.0	 1	 78	 0.5	 0.0	 0.0	 0.0	 0.0	 0.0	 0.0	 0.0	 0.0	 0.0	 0.0	 0.0; % NG
	301	 26.319	 -25.21	 73.0	 -73.0	 1.09939	 5.0	 1	 145	 0.5	 0.0	 0.0	 0.0	 0.0	 0.0	 0.0	 0.0	 0.0	 0.0	 0.0	 0.0; % NG
	301	 0.5	 -1.54	 17.0	 -17.0	 1.09939	 5.0	 1	 33	 0.5	 0.0	 0.0	 0.0	 0.0	 0.0	 0.0	 0.0	 0.0	 0.0	 0.0	 0.0; % PEL
	302	 0.5	 53.994	 54.0	 -54.0	 1.09969	 5.0	 1	 108	 0.5	 0.0	 0.0	 0.0	 0.0	 0.0	 0.0	 0.0	 0.0	 0.0	 0.0	 0.0; % NG
	316	 257.142	 192.369	 254.4	 -254.4	 1.0074	 426.0	 1	 361	 120.0	 0.0	 0.0	 0.0	 0.0	 0.0	 0.0	 0.0	 0.0	 0.0	 0.0	 0.0; % NG
	322	 0.0	 0.0	 39.0	 -39.0	 1.07084	 4.0	 0	 77	 0.5	 0.0	 0.0	 0.0	 0.0	 0.0	 0.0	 0.0	 0.0	 0.0	 0.0	 0.0; % PEL
	322	 0.0	 0.0	 22.0	 -22.0	 1.07084	 4.0	 0	 43	 0.5	 0.0	 0.0	 0.0	 0.0	 0.0	 0.0	 0.0	 0.0	 0.0	 0.0	 0.0; % PEL
	369	 0.0	 25.0	 25.0	 -25.0	 1.09118	 30.0	 1	 50	 0.0	 0.0	 0.0	 0.0	 0.0	 0.0	 0.0	 0.0	 0.0	 0.0	 0.0	 0.0; % PEL
	398	 0.0	 0.0	 123.0	 -123.0	 1.09282	 8.0	 0	 245	 2.5	 0.0	 0.0	 0.0	 0.0	 0.0	 0.0	 0.0	 0.0	 0.0	 0.0	 0.0; % COW
	402	 0.0	 -0.037	 11.0	 -11.0	 1.11999	 1.0	 1	 21	 0.0	 0.0	 0.0	 0.0	 0.0	 0.0	 0.0	 0.0	 0.0	 0.0	 0.0	 0.0; % PEL
	402	 75.0	 -0.442	 38.0	 -38.0	 1.11999	 1.0	 1	 75	 0.0	 0.0	 0.0	 0.0	 0.0	 0.0	 0.0	 0.0	 0.0	 0.0	 0.0	 0.0; % NG
	402	 0.0	 -0.162	 23.0	 -23.0	 1.11999	 1.0	 1	 46	 0.0	 0.0	 0.0	 0.0	 0.0	 0.0	 0.0	 0.0	 0.0	 0.0	 0.0	 0.0; % PEL
	409	 0.0	 0.0	 7.0	 -5.0	 1.11705	 31.0	 0	 9	 5.5	 0.0	 0.0	 0.0	 0.0	 0.0	 0.0	 0.0	 0.0	 0.0	 0.0	 0.0; % NG
	409	 69.0	 28.702	 35.0	 -35.0	 1.11705	 39.0	 1	 69	 5.5	 0.0	 0.0	 0.0	 0.0	 0.0	 0.0	 0.0	 0.0	 0.0	 0.0	 0.0; % COW
	409	 0.0	 0.0	 33.0	 -33.0	 1.11705	 41.0	 0	 65	 4.5	 0.0	 0.0	 0.0	 0.0	 0.0	 0.0	 0.0	 0.0	 0.0	 0.0	 0.0; % COW
	411	 0.0	 0.0	 128.0	 -128.0	 1.11058	 69.0	 0	 256	 10.0	 0.0	 0.0	 0.0	 0.0	 0.0	 0.0	 0.0	 0.0	 0.0	 0.0	 0.0; % NG
	411	 10.0	 34.754	 65.0	 -65.0	 1.11058	 69.0	 1	 129	 10.0	 0.0	 0.0	 0.0	 0.0	 0.0	 0.0	 0.0	 0.0	 0.0	 0.0	 0.0; % NG
	412	 0.0	 0.0	 29.0	 -29.0	 1.10619	 49.0	 0	 57	 5.0	 0.0	 0.0	 0.0	 0.0	 0.0	 0.0	 0.0	 0.0	 0.0	 0.0	 0.0; % NG
	412	 0.0	 0.0	 19.0	 -19.0	 1.10619	 69.0	 0	 37	 10.0	 0.0	 0.0	 0.0	 0.0	 0.0	 0.0	 0.0	 0.0	 0.0	 0.0	 0.0; % NG
	414	 0.0	 0.0	 38.0	 -38.0	 1.11519	 69.0	 0	 75	 12.5	 0.0	 0.0	 0.0	 0.0	 0.0	 0.0	 0.0	 0.0	 0.0	 0.0	 0.0; % NG
	414	 0.0	 0.0	 20.0	 0.0	 1.11519	 147.0	 0	 0	 55.0	 0.0	 0.0	 0.0	 0.0	 0.0	 0.0	 0.0	 0.0	 0.0	 0.0	 0.0; % SYNC
	415	 12.5	 39.999	 40.0	 -38.0	 1.11604	 69.0	 1	 75	 12.5	 0.0	 0.0	 0.0	 0.0	 0.0	 0.0	 0.0	 0.0	 0.0	 0.0	 0.0; % PEL
	428	 114.0	 35.637	 57.0	 -57.0	 1.12	 4.0	 1	 114	 1.0	 0.0	 0.0	 0.0	 0.0	 0.0	 0.0	 0.0	 0.0	 0.0	 0.0	 0.0; % NG
	466	 0.0	 0.0	 1.0	 0.0	 1.09496	 2.0	 0	 0	 1.0	 0.0	 0.0	 0.0	 0.0	 0.0	 0.0	 0.0	 0.0	 0.0	 0.0	 0.0; % PEL
	492	 9.692	 26.132	 57.0	 -57.0	 1.10452	 69.0	 1	 113	 7.5	 0.0	 0.0	 0.0	 0.0	 0.0	 0.0	 0.0	 0.0	 0.0	 0.0	 0.0; % NG
	493	 135.029	 -24.972	 85.0	 -85.0	 1.05301	 69.0	 1	 169	 7.5	 0.0	 0.0	 0.0	 0.0	 0.0	 0.0	 0.0	 0.0	 0.0	 0.0	 0.0; % NG
	494	 66.0	 19.074	 57.0	 -33.0	 1.12	 69.0	 1	 66	 7.5	 0.0	 0.0	 0.0	 0.0	 0.0	 0.0	 0.0	 0.0	 0.0	 0.0	 0.0; % NG
	494	 27.319	 18.728	 57.0	 -34.0	 1.12	 69.0	 1	 67	 7.5	 0.0	 0.0	 0.0	 0.0	 0.0	 0.0	 0.0	 0.0	 0.0	 0.0	 0.0; % NG
	495	 7.5	 20.721	 57.0	 -32.0	 1.11469	 69.0	 1	 64	 7.5	 0.0	 0.0	 0.0	 0.0	 0.0	 0.0	 0.0	 0.0	 0.0	 0.0	 0.0; % PEL
	495	 62.0	 30.688	 71.0	 -31.0	 1.11469	 88.0	 1	 62	 1.5	 0.0	 0.0	 0.0	 0.0	 0.0	 0.0	 0.0	 0.0	 0.0	 0.0	 0.0; % NG
	517	 110.767	 104.843	 174.0	 -174.0	 1.10858	 235.0	 1	 348	 60.0	 0.0	 0.0	 0.0	 0.0	 0.0	 0.0	 0.0	 0.0	 0.0	 0.0	 0.0; % NG
	517	 0.0	 0.0	 19.0	 -19.0	 1.10858	 49.0	 0	 37	 6.0	 0.0	 0.0	 0.0	 0.0	 0.0	 0.0	 0.0	 0.0	 0.0	 0.0	 0.0; % PEL
	518	 5.0	 -36.0	 36.0	 -36.0	 1.07717	 49.0	 1	 72	 5.0	 0.0	 0.0	 0.0	 0.0	 0.0	 0.0	 0.0	 0.0	 0.0	 0.0	 0.0; % PEL
	522	 0.0	 0.0	 46.0	 -46.0	 1.09633	 6.0	 0	 92	 2.0	 0.0	 0.0	 0.0	 0.0	 0.0	 0.0	 0.0	 0.0	 0.0	 0.0	 0.0; % NG
	542	 0.0	 22.8	 22.8	 -22.8	 1.10782	 0.0	 1	 0	 0.0	 0.0	 0.0	 0.0	 0.0	 0.0	 0.0	 0.0	 0.0	 0.0	 0.0	 0.0; % SYNC
	571	 0.0	 0.0	 41.0	 -41.0	 1.09151	 8.0	 0	 82	 1.5	 0.0	 0.0	 0.0	 0.0	 0.0	 0.0	 0.0	 0.0	 0.0	 0.0	 0.0; % PEL
	580	 0.0	 0.0	 31.0	 -31.0	 1.11677	 5.0	 0	 62	 1.5	 0.0	 0.0	 0.0	 0.0	 0.0	 0.0	 0.0	 0.0	 0.0	 0.0	 0.0; % PEL
	587	 131.0	 -7.688	 66.0	 -66.0	 1.11832	 7.0	 1	 131	 0.5	 0.0	 0.0	 0.0	 0.0	 0.0	 0.0	 0.0	 0.0	 0.0	 0.0	 0.0; % COW
	587	 35.0	 -0.579	 18.0	 -18.0	 1.11832	 7.0	 1	 35	 0.5	 0.0	 0.0	 0.0	 0.0	 0.0	 0.0	 0.0	 0.0	 0.0	 0.0	 0.0; % NG
	587	 0.0	 0.0	 13.0	 -13.0	 1.11832	 7.0	 0	 25	 0.5	 0.0	 0.0	 0.0	 0.0	 0.0	 0.0	 0.0	 0.0	 0.0	 0.0	 0.0; % NG
	599	 131.939	 11.53	 111.0	 -111.0	 1.12	 4.0	 1	 221	 1.0	 0.0	 0.0	 0.0	 0.0	 0.0	 0.0	 0.0	 0.0	 0.0	 0.0	 0.0; % COW
	633	 0.0	 0.0	 2.0	 0.0	 1.05212	 5.0	 0	 0	 3.0	 0.0	 0.0	 0.0	 0.0	 0.0	 0.0	 0.0	 0.0	 0.0	 0.0	 0.0; % PEL
	663	 138.943	 1.94	 133.0	 -133.0	 1.12	 2.0	 1	 266	 0.5	 0.0	 0.0	 0.0	 0.0	 0.0	 0.0	 0.0	 0.0	 0.0	 0.0	 0.0; % NG
	663	 0.0	 0.0	 18.0	 -18.0	 1.12	 2.0	 0	 36	 0.5	 0.0	 0.0	 0.0	 0.0	 0.0	 0.0	 0.0	 0.0	 0.0	 0.0	 0.0; % NG
	669	 0.0	 0.0	 92.0	 -92.0	 1.10164	 6.0	 0	 183	 1.5	 0.0	 0.0	 0.0	 0.0	 0.0	 0.0	 0.0	 0.0	 0.0	 0.0	 0.0; % NG
	740	 18.5	 4.533	 62.0	 -62.0	 1.09392	 63.0	 1	 124	 18.5	 0.0	 0.0	 0.0	 0.0	 0.0	 0.0	 0.0	 0.0	 0.0	 0.0	 0.0; % NG
	740	 0.0	 0.0	 39.0	 -39.0	 1.09392	 38.0	 0	 78	 5.0	 0.0	 0.0	 0.0	 0.0	 0.0	 0.0	 0.0	 0.0	 0.0	 0.0	 0.0; % PEL
	740	 0.0	 0.0	 85.0	 -2.0	 1.09392	 150.0	 0	 4	 50.0	 0.0	 0.0	 0.0	 0.0	 0.0	 0.0	 0.0	 0.0	 0.0	 0.0	 0.0; % NG
	740	 196.883	 18.421	 126.0	 -126.0	 1.09392	 150.0	 1	 252	 25.0	 0.0	 0.0	 0.0	 0.0	 0.0	 0.0	 0.0	 0.0	 0.0	 0.0	 0.0; % COW
	741	 0.0	 0.0	 73.0	 -73.0	 1.10974	 38.0	 0	 145	 5.0	 0.0	 0.0	 0.0	 0.0	 0.0	 0.0	 0.0	 0.0	 0.0	 0.0	 0.0; % PEL
	741	 0.0	 0.0	 23.0	 -4.0	 1.10974	 38.0	 0	 7	 5.0	 0.0	 0.0	 0.0	 0.0	 0.0	 0.0	 0.0	 0.0	 0.0	 0.0	 0.0; % NG
	741	 5.0	 1.3	 45.6	 -45.6	 1.10974	 38.0	 1	 72	 5.0	 0.0	 0.0	 0.0	 0.0	 0.0	 0.0	 0.0	 0.0	 0.0	 0.0	 0.0; % PEL
	741	 214.523	 38.488	 251.0	 -251.0	 1.10974	 150.0	 1	 502	 34.0	 0.0	 0.0	 0.0	 0.0	 0.0	 0.0	 0.0	 0.0	 0.0	 0.0	 0.0; % COW
	741	 0.0	 0.0	 85.0	 -66.0	 1.10974	 150.0	 0	 132	 25.0	 0.0	 0.0	 0.0	 0.0	 0.0	 0.0	 0.0	 0.0	 0.0	 0.0	 0.0; % NG
	762	 0.5	 -11.062	 45.0	 -45.0	 1.0832	 2.0	 1	 89	 0.5	 0.0	 0.0	 0.0	 0.0	 0.0	 0.0	 0.0	 0.0	 0.0	 0.0	 0.0; % PEL
	764	 0.0	 1.298	 36.0	 -36.0	 1.06881	 4.0	 1	 71	 0.0	 0.0	 0.0	 0.0	 0.0	 0.0	 0.0	 0.0	 0.0	 0.0	 0.0	 0.0; % PEL
	772	 0.0	 0.0	 18.0	 -2.0	 1.10029	 38.0	 0	 3	 9.0	 0.0	 0.0	 0.0	 0.0	 0.0	 0.0	 0.0	 0.0	 0.0	 0.0	 0.0; % PEL
	772	 176.0	 -0.526	 88.0	 -88.0	 1.10029	 38.0	 1	 176	 4.5	 0.0	 0.0	 0.0	 0.0	 0.0	 0.0	 0.0	 0.0	 0.0	 0.0	 0.0; % NG
	773	 0.0	 0.0	 18.0	 -11.0	 1.12	 38.0	 0	 22	 4.5	 0.0	 0.0	 0.0	 0.0	 0.0	 0.0	 0.0	 0.0	 0.0	 0.0	 0.0; % NG
	773	 0.0	 0.0	 74.0	 -74.0	 1.12	 38.0	 0	 148	 4.5	 0.0	 0.0	 0.0	 0.0	 0.0	 0.0	 0.0	 0.0	 0.0	 0.0	 0.0; % NG
	773	 0.0	 0.0	 18.0	 -3.0	 1.12	 38.0	 0	 6	 4.5	 0.0	 0.0	 0.0	 0.0	 0.0	 0.0	 0.0	 0.0	 0.0	 0.0	 0.0; % NG
	773	 296.0	 127.084	 148.0	 -148.0	 1.12	 121.0	 1	 296	 15.0	 0.0	 0.0	 0.0	 0.0	 0.0	 0.0	 0.0	 0.0	 0.0	 0.0	 0.0; % NG
	774	 0.0	 0.0	 18.0	 -11.0	 1.10052	 38.0	 0	 21	 4.5	 0.0	 0.0	 0.0	 0.0	 0.0	 0.0	 0.0	 0.0	 0.0	 0.0	 0.0; % PEL
	774	 0.0	 0.0	 18.0	 -3.0	 1.10052	 38.0	 0	 5	 4.5	 0.0	 0.0	 0.0	 0.0	 0.0	 0.0	 0.0	 0.0	 0.0	 0.0	 0.0; % PEL
	774	 0.0	 0.0	 14.0	 -2.0	 1.10052	 32.0	 0	 3	 9.0	 0.0	 0.0	 0.0	 0.0	 0.0	 0.0	 0.0	 0.0	 0.0	 0.0	 0.0; % NG
	809	 169.0	 -2.807	 85.0	 -85.0	 1.11998	 5.0	 1	 169	 0.5	 0.0	 0.0	 0.0	 0.0	 0.0	 0.0	 0.0	 0.0	 0.0	 0.0	 0.0; % NG
	809	 0.0	 0.0	 18.0	 -18.0	 1.11998	 2.0	 0	 36	 0.5	 0.0	 0.0	 0.0	 0.0	 0.0	 0.0	 0.0	 0.0	 0.0	 0.0	 0.0; % PEL
	829	 0.0	 0.0	 53.0	 -53.0	 1.06347	 6.0	 0	 106	 2.0	 0.0	 0.0	 0.0	 0.0	 0.0	 0.0	 0.0	 0.0	 0.0	 0.0	 0.0; % NG
	844	 68.545	 0.381	 56.0	 -56.0	 1.10144	 6.0	 1	 111	 0.0	 0.0	 0.0	 0.0	 0.0	 0.0	 0.0	 0.0	 0.0	 0.0	 0.0	 0.0; % COW
	853	 0.0	 0.0	 71.0	 -71.0	 1.08248	 4.0	 0	 141	 0.0	 0.0	 0.0	 0.0	 0.0	 0.0	 0.0	 0.0	 0.0	 0.0	 0.0	 0.0; % NG
	876	 25.0	 14.087	 38.4	 -38.4	 1.0952	 65.0	 1	 25	 0.0	 0.0	 0.0	 0.0	 0.0	 0.0	 0.0	 0.0	 0.0	 0.0	 0.0	 0.0; % NG
	876	 0.0	 14.087	 38.4	 -38.4	 1.0952	 65.0	 1	 43	 0.0	 0.0	 0.0	 0.0	 0.0	 0.0	 0.0	 0.0	 0.0	 0.0	 0.0	 0.0; % PEL
	879	 0.0	 0.0	 30.0	 -30.0	 1.07438	 12.0	 0	 60	 0.0	 0.0	 0.0	 0.0	 0.0	 0.0	 0.0	 0.0	 0.0	 0.0	 0.0	 0.0; % NG
	886	 0.0	 0.0	 14.0	 -14.0	 1.08682	 5.0	 0	 28	 0.0	 0.0	 0.0	 0.0	 0.0	 0.0	 0.0	 0.0	 0.0	 0.0	 0.0	 0.0; % PEL
	887	 0.0	 0.0	 185.0	 -185.0	 1.08685	 6.0	 0	 369	 0.0	 0.0	 0.0	 0.0	 0.0	 0.0	 0.0	 0.0	 0.0	 0.0	 0.0	 0.0; % NG
	922	 234.0	 96.955	 149.0	 -117.0	 1.1172	 235.0	 1	 234	 67.5	 0.0	 0.0	 0.0	 0.0	 0.0	 0.0	 0.0	 0.0	 0.0	 0.0	 0.0; % NG
	923	 0.0	 0.0	 149.0	 -33.0	 1.11681	 235.0	 0	 33	 110.0	 0.0	 0.0	 0.0	 0.0	 0.0	 0.0	 0.0	 0.0	 0.0	 0.0	 0.0; % NG
	931	 0.0	 0.0	 16.0	 -16.0	 1.07622	 3.0	 0	 31	 0.0	 0.0	 0.0	 0.0	 0.0	 0.0	 0.0	 0.0	 0.0	 0.0	 0.0	 0.0; % PEL
	937	 0.0	 0.0	 0.0	 0.0	 1.0884	 12.0	 0	 0	 0.0	 0.0	 0.0	 0.0	 0.0	 0.0	 0.0	 0.0	 0.0	 0.0	 0.0	 0.0; % PEL
	947	 0.0	 0.0	 30.0	 -22.0	 1.09263	 168.0	 0	 43	 33.0	 0.0	 0.0	 0.0	 0.0	 0.0	 0.0	 0.0	 0.0	 0.0	 0.0	 0.0; % NG
	947	 0.0	 0.0	 197.0	 -197.0	 1.09263	 72.0	 0	 394	 17.0	 0.0	 0.0	 0.0	 0.0	 0.0	 0.0	 0.0	 0.0	 0.0	 0.0	 0.0; % NG
	953	 0.0	 0.0	 2.0	 -2.0	 1.09351	 8.0	 0	 3	 0.0	 0.0	 0.0	 0.0	 0.0	 0.0	 0.0	 0.0	 0.0	 0.0	 0.0	 0.0; % PEL
	967	 0.0	 0.0	 123.0	 -123.0	 1.09002	 6.0	 0	 245	 0.0	 0.0	 0.0	 0.0	 0.0	 0.0	 0.0	 0.0	 0.0	 0.0	 0.0	 0.0; % NG
	970	 0.0	 0.0	 36.0	 -36.0	 1.10752	 3.0	 0	 72	 0.0	 0.0	 0.0	 0.0	 0.0	 0.0	 0.0	 0.0	 0.0	 0.0	 0.0	 0.0; % NG
	985	 0.0	 30.129	 57.6	 -57.6	 1.11314	 3.0	 1	 1	 0.0	 0.0	 0.0	 0.0	 0.0	 0.0	 0.0	 0.0	 0.0	 0.0	 0.0	 0.0; % NG
	990	 0.0	 -8.346	 75.6	 -75.6	 1.07488	 1.0	 1	 61	 0.0	 0.0	 0.0	 0.0	 0.0	 0.0	 0.0	 0.0	 0.0	 0.0	 0.0	 0.0; % PEL
	995	 0.0	 0.0	 29.0	 -29.0	 1.07997	 1.0	 0	 58	 0.0	 0.0	 0.0	 0.0	 0.0	 0.0	 0.0	 0.0	 0.0	 0.0	 0.0	 0.0; % PEL
	1006	 0.0	 0.0	 30.0	 -30.0	 1.08182	 2.0	 0	 60	 0.5	 0.0	 0.0	 0.0	 0.0	 0.0	 0.0	 0.0	 0.0	 0.0	 0.0	 0.0; % PEL
	1011	 142.0	 31.928	 120.0	 -71.0	 1.12	 235.0	 1	 142	 64.5	 0.0	 0.0	 0.0	 0.0	 0.0	 0.0	 0.0	 0.0	 0.0	 0.0	 0.0; % NG
	1013	 0.0	 0.0	 30.0	 -2.0	 1.07768	 37.0	 0	 3	 0.0	 0.0	 0.0	 0.0	 0.0	 0.0	 0.0	 0.0	 0.0	 0.0	 0.0	 0.0; % PEL
	1016	 0.0	 0.0	 5.0	 -5.0	 1.0976	 3.0	 0	 10	 1.0	 0.0	 0.0	 0.0	 0.0	 0.0	 0.0	 0.0	 0.0	 0.0	 0.0	 0.0; % NG
	1036	 0.0	 0.0	 30.0	 -30.0	 1.09461	 101.0	 0	 59	 24.5	 0.0	 0.0	 0.0	 0.0	 0.0	 0.0	 0.0	 0.0	 0.0	 0.0	 0.0; % NG
	1042	 0.0	 0.0	 10.0	 -10.0	 1.08383	 2.0	 0	 19	 0.0	 0.0	 0.0	 0.0	 0.0	 0.0	 0.0	 0.0	 0.0	 0.0	 0.0	 0.0; % PEL
	1057	 133.24	 13.558	 140.0	 -140.0	 1.10029	 10.0	 1	 279	 0.0	 0.0	 0.0	 0.0	 0.0	 0.0	 0.0	 0.0	 0.0	 0.0	 0.0	 0.0; % NG
	1060	 0.0	 0.0	 9.0	 -9.0	 1.09516	 2.0	 0	 17	 0.5	 0.0	 0.0	 0.0	 0.0	 0.0	 0.0	 0.0	 0.0	 0.0	 0.0	 0.0; % PEL
	1062	 0.0	 0.0	 13.0	 -13.0	 1.09117	 6.0	 0	 26	 0.5	 0.0	 0.0	 0.0	 0.0	 0.0	 0.0	 0.0	 0.0	 0.0	 0.0	 0.0; % PEL
	1067	 4.0	 -16.8	 16.8	 -16.8	 1.06318	 11.0	 1	 4	 0.0	 0.0	 0.0	 0.0	 0.0	 0.0	 0.0	 0.0	 0.0	 0.0	 0.0	 0.0; % NG
	1071	 0.0	 0.0	 55.0	 -55.0	 1.06085	 52.0	 0	 110	 2.5	 0.0	 0.0	 0.0	 0.0	 0.0	 0.0	 0.0	 0.0	 0.0	 0.0	 0.0; % NG
	1071	 15.0	 -5.034	 23.0	 -8.0	 1.06085	 52.0	 1	 15	 2.5	 0.0	 0.0	 0.0	 0.0	 0.0	 0.0	 0.0	 0.0	 0.0	 0.0	 0.0; % NG
	1071	 0.0	 0.0	 47.0	 -47.0	 1.06085	 25.0	 0	 94	 -32.0	 0.0	 0.0	 0.0	 0.0	 0.0	 0.0	 0.0	 0.0	 0.0	 0.0	 0.0; % NG
	1071	 0.0	 0.0	 109.0	 -109.0	 1.06085	 25.0	 0	 218	 -32.0	 0.0	 0.0	 0.0	 0.0	 0.0	 0.0	 0.0	 0.0	 0.0	 0.0	 0.0; % NG
	1086	 0.0	 0.0	 24.0	 -23.0	 1.12	 69.0	 0	 45	 4.0	 0.0	 0.0	 0.0	 0.0	 0.0	 0.0	 0.0	 0.0	 0.0	 0.0	 0.0; % PEL
	1086	 294.349	 9.141	 190.0	 -190.0	 1.12	 58.0	 1	 380	 46.0	 0.0	 0.0	 0.0	 0.0	 0.0	 0.0	 0.0	 0.0	 0.0	 0.0	 0.0; % NG
	1087	 146.0	 54.608	 74.0	 -86.4	 1.10084	 58.0	 1	 146	 42.5	 0.0	 0.0	 0.0	 0.0	 0.0	 0.0	 0.0	 0.0	 0.0	 0.0	 0.0; % NG
	1087	 0.0	 0.0	 28.0	 -21.0	 1.10084	 40.0	 0	 41	 6.0	 0.0	 0.0	 0.0	 0.0	 0.0	 0.0	 0.0	 0.0	 0.0	 0.0	 0.0; % PEL
	1099	 0.0	 0.0	 79.0	 -79.0	 1.08899	 3.0	 0	 158	 0.0	 0.0	 0.0	 0.0	 0.0	 0.0	 0.0	 0.0	 0.0	 0.0	 0.0	 0.0; % NG
	1126	 0.0	 0.0	 12.0	 -12.0	 1.0755	 4.0	 0	 24	 1.0	 0.0	 0.0	 0.0	 0.0	 0.0	 0.0	 0.0	 0.0	 0.0	 0.0	 0.0; % PEL
	1132	 0.0	 36.826	 42.0	 -42.0	 1.12	 31.0	 1	 59	 0.0	 0.0	 0.0	 0.0	 0.0	 0.0	 0.0	 0.0	 0.0	 0.0	 0.0	 0.0; % PEL
...
];

%% generator cost data
%	2	startup	shutdown	n	c(n-1)	...	c0
mpc.gencost = [
	2	 0.0	 0.0	 3	   0.000000	   0.227003	   0.000000; % COW
	2	 0.0	 0.0	 3	   0.000000	   0.611810	   0.000000; % COW
	2	 0.0	 0.0	 3	   0.000000	   1.418347	   0.000000; % NG
	2	 0.0	 0.0	 3	   0.000000	   0.701902	   0.000000; % NG
	2	 0.0	 0.0	 3	   0.000000	   1.161695	   0.000000; % NG
	2	 0.0	 0.0	 3	   0.000000	   1.074722	   0.000000; % NG
	2	 0.0	 0.0	 3	   0.000000	   0.344244	   0.000000; % COW
	2	 0.0	 0.0	 3	   0.000000	   1.086026	   0.000000; % COW
	2	 0.0	 0.0	 3	   0.000000	   1.277845	   0.000000; % NG
	2	 0.0	 0.0	 3	   0.000000	   1.009536	   0.000000; % NG
	2	 0.0	 0.0	 3	   0.000000	   1.439156	   0.000000; % NG
	2	 0.0	 0.0	 3	   0.000000	   0.612678	   0.000000; % COW
	2	 0.0	 0.0	 3	   0.000000	   0.181850	   0.000000; % COW
	2	 0.0	 0.0	 3	   0.000000	   1.335310	   0.000000; % NG
	2	 0.0	 0.0	 3	   0.000000	   1.272603	   0.000000; % NG
	2	 0.0	 0.0	 3	   0.000000	   1.171740	   0.000000; % NG
	2	 0.0	 0.0	 3	   0.000000	   0.924604	   0.000000; % NG
	2	 0.0	 0.0	 3	   0.000000	   1.385407	   0.000000; % NG
	2	 0.0	 0.0	 3	   0.000000	   1.395689	   0.000000; % NG
	2	 0.0	 0.0	 3	   0.000000	   0.805289	   0.000000; % NG
	2	 0.0	 0.0	 3	   0.000000	   1.298119	   0.000000; % COW
	2	 0.0	 0.0	 3	   0.000000	   1.262531	   0.000000; % NG
	2	 0.0	 0.0	 3	   0.000000	   1.360146	   0.000000; % NG
	2	 0.0	 0.0	 3	   0.000000	   1.189934	   0.000000; % NG
	2	 0.0	 0.0	 3	   0.000000	   0.756095	   0.000000; % NG
	2	 0.0	 0.0	 3	   0.000000	   1.048920	   0.000000; % NG
	2	 0.0	 0.0	 3	   0.000000	   1.074782	   0.000000; % NG
	2	 0.0	 0.0	 3	   0.000000	   1.001374	   0.000000; % COW
	2	 0.0	 0.0	 3	   0.000000	   0.956431	   0.000000; % NG
	2	 0.0	 0.0	 3	   0.000000	   1.110196	   0.000000; % NG
	2	 0.0	 0.0	 3	   0.000000	   0.962407	   0.000000; % NG
	2	 0.0	 0.0	 3	   0.000000	   0.840037	   0.000000; % COW
	2	 0.0	 0.0	 3	   0.000000	   0.901533	   0.000000; % NG
	2	 0.0	 0.0	 3	   0.000000	   1.062637	   0.000000; % NG
	2	 0.0	 0.0	 3	   0.000000	   0.946501	   0.000000; % NG
	2	 0.0	 0.0	 3	   0.000000	   0.326615	   0.000000; % COW
	2	 0.0	 0.0	 3	   0.000000	   1.123596	   0.000000; % NG
	2	 0.0	 0.0	 3	   0.000000	   7.103084	   0.000000; % PEL
	2	 0.0	 0.0	 3	   0.000000	   1.018153	   0.000000; % COW
	2	 0.0	 0.0	 3	   0.000000	   1.125146	   0.000000; % NG
	2	 0.0	 0.0	 3	   0.000000	   0.986850	   0.000000; % COW
	2	 0.0	 0.0	 3	   0.000000	   0.973280	   0.000000; % COW
	2	 0.0	 0.0	 3	   0.000000	   0.774951	   0.000000; % NG
	2	 0.0	 0.0	 3	   0.000000	   1.081456	   0.000000; % NG
	2	 0.0	 0.0	 3	   0.000000	   0.891570	   0.000000; % NG
	2	 0.0	 0.0	 3	   0.000000	   1.111301	   0.000000; % NG
	2	 0.0	 0.0	 3	   0.000000	   1.026583	   0.000000; % NG
	2	 0.0	 0.0	 3	   0.000000	   0.928034	   0.000000; % NG
	2	 0.0	 0.0	 3	   0.000000	   0.740185	   0.000000; % NG
	2	 0.0	 0.0	 3	   0.000000	   1.007794	   0.000000; % NG
	2	 0.0	 0.0	 3	   0.000000	   1.079534	   0.000000; % NG
	2	 0.0	 0.0	 3	   0.000000	   0.780549	   0.000000; % COW
	2	 0.0	 0.0	 3	   0.000000	   1.399657	   0.000000; % NG
	2	 0.0	 0.0	 3	   0.000000	   1.110123	   0.000000; % NG
	2	 0.0	 0.0	 3	   0.000000	   0.860237	   0.000000; % NG
	2	 0.0	 0.0	 3	   0.000000	   1.088847	   0.000000; % NG
	2	 0.0	 0.0	 3	   0.000000	   1.021953	   0.000000; % COW
	2	 0.0	 0.0	 3	   0.000000	   0.651698	   0.000000; % NG
	2	 0.0	 0.0	 3	   0.000000	   1.300096	   0.000000; % NG
	2	 0.0	 0.0	 3	   0.000000	   1.008362	   0.000000; % NG
	2	 0.0	 0.0	 3	   0.000000	   0.785430	   0.000000; % COW
	2	 0.0	 0.0	 3	   0.000000	   0.641737	   0.000000; % COW
	2	 0.0	 0.0	 3	   0.000000	   1.230296	   0.000000; % NG
	2	 0.0	 0.0	 3	   0.000000	   0.858581	   0.000000; % COW
	2	 0.0	 0.0	 3	   0.000000	   1.174854	   0.000000; % NG
	2	 0.0	 0.0	 3	   0.000000	   1.098751	   0.000000; % COW
	2	 0.0	 0.0	 3	   0.000000	   1.057357	   0.000000; % NG
	2	 0.0	 0.0	 3	   0.000000	   1.107075	   0.000000; % NG
	2	 0.0	 0.0	 3	   0.000000	   0.822271	   0.000000; % NG
	2	 0.0	 0.0	 3	   0.000000	   1.331420	   0.000000; % NG
	2	 0.0	 0.0	 3	   0.000000	   1.121964	   0.000000; % NG
	2	 0.0	 0.0	 3	   0.000000	   1.314954	   0.000000; % NG
	2	 0.0	 0.0	 3	   0.000000	   1.328613	   0.000000; % NG
	2	 0.0	 0.0	 3	   0.000000	   1.168928	   0.000000; % NG
	2	 0.0	 0.0	 3	   0.000000	   1.035992	   0.000000; % NG
	2	 0.0	 0.0	 3	   0.000000	   1.272304	   0.000000; % NG
	2	 0.0	 0.0	 3	   0.000000	   1.388476	   0.000000; % NG
	2	 0.0	 0.0	 3	   0.000000	   0.603589	   0.000000; % NG
	2	 0.0	 0.0	 3	   0.000000	   0.830444	   0.000000; % COW
	2	 0.0	 0.0	 3	   0.000000	   1.184441	   0.000000; % NG
	2	 0.0	 0.0	 3	   0.000000	   1.061162	   0.000000; % NG
	2	 0.0	 0.0	 3	   0.000000	   0.952623	   0.000000; % NG
	2	 0.0	 0.0	 3	   0.000000	   1.341359	   0.000000; % NG
	2	 0.0	 0.0	 3	   0.000000	   1.382584	   0.000000; % NG
	2	 0.0	 0.0	 3	   0.000000	   1.081967	   0.000000; % NG
	2	 0.0	 0.0	 3	   0.000000	   0.854154	   0.000000; % COW
	2	 0.0	 0.0	 3	   0.000000	   6.924193	   0.000000; % PEL
	2	 0.0	 0.0	 3	   0.000000	   1.061320	   0.000000; % NG
	2	 0.0	 0.0	 3	   0.000000	   7.069261	   0.000000; % PEL
	2	 0.0	 0.0	 3	   0.000000	   6.903104	   0.000000; % PEL
	2	 0.0	 0.0	 3	   0.000000	   0.823815	   0.000000; % COW
	2	 0.0	 0.0	 3	   0.000000	   1.364507	   0.000000; % NG
	2	 0.0	 0.0	 3	   0.000000	   1.180386	   0.000000; % NG
	2	 0.0	 0.0	 3	   0.000000	   1.229402	   0.000000; % NG
	2	 0.0	 0.0	 3	   0.000000	   7.103824	   0.000000; % PEL
	2	 0.0	 0.0	 3	   0.000000	   1.363561	   0.000000; % NG
	2	 0.0	 0.0	 3	   0.000000	   0.997134	   0.000000; % NG
	2	 0.0	 0.0	 3	   0.000000	   7.036032	   0.000000; % PEL
	2	 0.0	 0.0	 3	   0.000000	   7.224533	   0.000000; % PEL
	2	 0.0	 0.0	 3	   0.000000	   7.127564	   0.000000; % PEL
	2	 0.0	 0.0	 3	   0.000000	   0.737704	   0.000000; % COW
	2	 0.0	 0.0	 3	   0.000000	   7.035579	   0.000000; % PEL
	2	 0.0	 0.0	 3	   0.000000	   1.026056	   0.000000; % NG
	2	 0.0	 0.0	 3	   0.000000	   7.259550	   0.000000; % PEL
	2	 0.0	 0.0	 3	   0.000000	   1.353994	   0.000000; % NG
	2	 0.0	 0.0	 3	   0.000000	   0.876404	   0.000000; % COW
	2	 0.0	 0.0	 3	   0.000000	   0.699385	   0.000000; % COW
	2	 0.0	 0.0	 3	   0.000000	   0.868186	   0.000000; % NG
	2	 0.0	 0.0	 3	   0.000000	   1.352096	   0.000000; % NG
	2	 0.0	 0.0	 3	   0.000000	   0.777663	   0.000000; % NG
	2	 0.0	 0.0	 3	   0.000000	   1.406464	   0.000000; % NG
	2	 0.0	 0.0	 3	   0.000000	   1.024126	   0.000000; % NG
	2	 0.0	 0.0	 3	   0.000000	   0.000000	   0.000000; % SYNC
	2	 0.0	 0.0	 3	   0.000000	   7.089553	   0.000000; % PEL
	2	 0.0	 0.0	 3	   0.000000	   0.626684	   0.000000; % NG
	2	 0.0	 0.0	 3	   0.000000	   6.744939	   0.000000; % PEL
	2	 0.0	 0.0	 3	   0.000000	   1.289690	   0.000000; % NG
	2	 0.0	 0.0	 3	   0.000000	   0.991237	   0.000000; % NG
	2	 0.0	 0.0	 3	   0.000000	   1.035778	   0.000000; % NG
	2	 0.0	 0.0	 3	   0.000000	   1.153612	   0.000000; % NG
	2	 0.0	 0.0	 3	   0.000000	   6.726847	   0.000000; % PEL
	2	 0.0	 0.0	 3	   0.000000	   0.777925	   0.000000; % NG
	2	 0.0	 0.0	 3	   0.000000	   0.928943	   0.000000; % NG
	2	 0.0	 0.0	 3	   0.000000	   6.896672	   0.000000; % PEL
	2	 0.0	 0.0	 3	   0.000000	   7.099767	   0.000000; % PEL
	2	 0.0	 0.0	 3	   0.000000	   0.827965	   0.000000; % NG
	2	 0.0	 0.0	 3	   0.000000	   0.000000	   0.000000; % SYNC
	2	 0.0	 0.0	 3	   0.000000	   7.222478	   0.000000; % PEL
	2	 0.0	 0.0	 3	   0.000000	   6.286679	   0.000000; % PEL
	2	 0.0	 0.0	 3	   0.000000	   0.653624	   0.000000; % COW
	2	 0.0	 0.0	 3	   0.000000	   1.060922	   0.000000; % NG
	2	 0.0	 0.0	 3	   0.000000	   1.271021	   0.000000; % NG
	2	 0.0	 0.0	 3	   0.000000	   0.644454	   0.000000; % COW
	2	 0.0	 0.0	 3	   0.000000	   6.823275	   0.000000; % PEL
	2	 0.0	 0.0	 3	   0.000000	   0.859745	   0.000000; % NG
	2	 0.0	 0.0	 3	   0.000000	   0.944156	   0.000000; % NG
	2	 0.0	 0.0	 3	   0.000000	   1.086735	   0.000000; % NG
	2	 0.0	 0.0	 3	   0.000000	   1.118011	   0.000000; % NG
	2	 0.0	 0.0	 3	   0.000000	   7.083291	   0.000000; % PEL
	2	 0.0	 0.0	 3	   0.000000	   0.866120	   0.000000; % NG
	2	 0.0	 0.0	 3	   0.000000	   0.402451	   0.000000; % COW
	2	 0.0	 0.0	 3	   0.000000	   7.427509	   0.000000; % PEL
	2	 0.0	 0.0	 3	   0.000000	   1.074180	   0.000000; % NG
	2	 0.0	 0.0	 3	   0.000000	   6.448456	   0.000000; % PEL
	2	 0.0	 0.0	 3	   0.000000	   0.668649	   0.000000; % COW
	2	 0.0	 0.0	 3	   0.000000	   1.120463	   0.000000; % NG
	2	 0.0	 0.0	 3	   0.000000	   6.523462	   0.000000; % PEL
	2	 0.0	 0.0	 3	   0.000000	   6.611125	   0.000000; % PEL
	2	 0.0	 0.0	 3	   0.000000	   7.247011	   0.000000; % PEL
	2	 0.0	 0.0	 3	   0.000000	   0.997460	   0.000000; % NG
	2	 0.0	 0.0	 3	   0.000000	   1.278527	   0.000000; % NG
	2	 0.0	 0.0	 3	   0.000000	   1.175448	   0.000000; % NG
	2	 0.0	 0.0	 3	   0.000000	   1.252551	   0.000000; % NG
	2	 0.0	 0.0	 3	   0.000000	   1.050493	   0.000000; % NG
	2	 0.0	 0.0	 3	   0.000000	   6.826761	   0.000000; % PEL
	2	 0.0	 0.0	 3	   0.000000	   6.564551	   0.000000; % PEL
	2	 0.0	 0.0	 3	   0.000000	   0.911432	   0.000000; % NG
	2	 0.0	 0.0	 3	   0.000000	   0.870532	   0.000000; % NG
	2	 0.0	 0.0	 3	   0.000000	   6.894732	   0.000000; % PEL
	2	 0.0	 0.0	 3	   0.000000	   0.945547	   0.000000; % NG
	2	 0.0	 0.0	 3	   0.000000	   1.142889	   0.000000; % COW
	2	 0.0	 0.0	 3	   0.000000	   1.122518	   0.000000; % NG
	2	 0.0	 0.0	 3	   0.000000	   1.074010	   0.000000; % NG
	2	 0.0	 0.0	 3	   0.000000	   7.914588	   0.000000; % PEL
	2	 0.0	 0.0	 3	   0.000000	   0.970350	   0.000000; % NG
	2	 0.0	 0.0	 3	   0.000000	   7.284399	   0.000000; % PEL
	2	 0.0	 0.0	 3	   0.000000	   1.027525	   0.000000; % NG
	2	 0.0	 0.0	 3	   0.000000	   0.831006	   0.000000; % NG
	2	 0.0	 0.0	 3	   0.000000	   1.114217	   0.000000; % NG
	2	 0.0	 0.0	 3	   0.000000	   6.837472	   0.000000; % PEL
	2	 0.0	 0.0	 3	   0.000000	   7.078918	   0.000000; % PEL
	2	 0.0	 0.0	 3	   0.000000	   1.682579	   0.000000; % NG
	2	 0.0	 0.0	 3	   0.000000	   0.865055	   0.000000; % NG
	2	 0.0	 0.0	 3	   0.000000	   7.244531	   0.000000; % PEL
	2	 0.0	 0.0	 3	   0.000000	   1.207073	   0.000000; % NG
	2	 0.0	 0.0	 3	   0.000000	   0.622451	   0.000000; % NG
	2	 0.0	 0.0	 3	   0.000000	   1.271131	   0.000000; % NG
	2	 0.0	 0.0	 3	   0.000000	   7.165734	   0.000000; % PEL
	2	 0.0	 0.0	 3	   0.000000	   7.534633	   0.000000; % PEL
	2	 0.0	 0.0	 3	   0.000000	   6.710034	   0.000000; % PEL
	2	 0.0	 0.0	 3	   0.000000	   1.018923	   0.000000; % NG
	2	 0.0	 0.0	 3	   0.000000	   7.119867	   0.000000; % PEL
	2	 0.0	 0.0	 3	   0.000000	   0.898447	   0.000000; % NG
	2	 0.0	 0.0	 3	   0.000000	   0.992177	   0.000000; % NG
	2	 0.0	 0.0	 3	   0.000000	   6.760208	   0.000000; % PEL
	2	 0.0	 0.0	 3	   0.000000	   1.019937	   0.000000; % NG
	2	 0.0	 0.0	 3	   0.000000	   6.558225	   0.000000; % PEL
	2	 0.0	 0.0	 3	   0.000000	   6.690091	   0.000000; % PEL
	2	 0.0	 0.0	 3	   0.000000	   0.989542	   0.000000; % NG
	2	 0.0	 0.0	 3	   0.000000	   0.980423	   0.000000; % NG
	2	 0.0	 0.0	 3	   0.000000	   1.042169	   0.000000; % NG
	2	 0.0	 0.0	 3	   0.000000	   1.260143	   0.000000; % NG
	2	 0.0	 0.0	 3	   0.000000	   1.342452	   0.000000; % NG
	2	 0.0	 0.0	 3	   0.000000	   6.494019	   0.000000; % PEL
	2	 0.0	 0.0	 3	   0.000000	   1.043161	   0.000000; % NG
	2	 0.0	 0.0	 3	   0.000000	   0.976100	   0.000000; % NG
	2	 0.0	 0.0	 3	   0.000000	   7.136414	   0.000000; % PEL
	2	 0.0	 0.0	 3	   0.000000	   1.254024	   0.000000; % NG
	2	 0.0	 0.0	 3	   0.000000	   6.681260	   0.000000; % PEL
	2	 0.0	 0.0	 3	   0.000000	   6.109180	   0.000000; % PEL
...
];

%% branch data
%	fbus	tbus	r	x	b	rateA	rateB	rateC	ratio	angle	status	angmin	angmax
mpc.branch = [
	9	 11	 0.00064	 0.0305	 0.0	 400.0	 400.0	 400.0	 1.09271	 0.0	 1	 -30.0	 30.0;
	13	 12	 0.00069	 0.03946	 0.0	 250.0	 250.0	 250.0	 0.9999	 0.0	 1	 -30.0	 30.0;
	20	 18	 0.00088	 0.05709	 0.0	 330.0	 330.0	 330.0	 0.9999	 0.0	 1	 -30.0	 30.0;
	34	 33	 0.0007	 0.03652	 0.0	 250.0	 250.0	 250.0	 0.9999	 0.0	 1	 -30.0	 30.0;
	35	 37	 0.00036	 0.02519	 0.0	 500.0	 500.0	 500.0	 1.07313	 0.0	 1	 -30.0	 30.0;
	36	 38	 0.00036	 0.02519	 0.0	 500.0	 500.0	 500.0	 1.07313	 0.0	 1	 -30.0	 30.0;
	53	 54	 0.00034	 0.02097	 0.0	 500.0	 500.0	 500.0	 1.0755	 0.0	 1	 -30.0	 30.0;
	57	 59	 0.00034	 0.02097	 0.0	 500.0	 500.0	 500.0	 1.07313	 0.0	 1	 -30.0	 30.0;
	68	 70	 0.00081	 0.03	 0.0	 400.0	 400.0	 400.0	 1.10102	 0.0	 1	 -30.0	 30.0;
	105	 107	 0.00075	 0.02445	 -0.00832	 330.0	 330.0	 330.0	 1.039	 0.0	 1	 -30.0	 30.0;
	106	 108	 0.0004	 0.0253	 0.0	 500.0	 500.0	 500.0	 1.0457	 0.0	 1	 -30.0	 30.0;
	142	 145	 0.00053	 0.02875	 -0.016	 400.0	 400.0	 400.0	 1.06299	 0.0	 1	 -30.0	 30.0;
	170	 171	 0.00064	 0.0305	 0.0	 400.0	 400.0	 400.0	 1.07408	 0.0	 1	 -30.0	 30.0;
	177	 180	 0.00023	 0.023	 0.0	 500.0	 500.0	 500.0	 1.07426	 0.0	 1	 -30.0	 30.0;
	178	 181	 0.00023	 0.023	 0.0	 500.0	 500.0	 500.0	 1.07426	 0.0	 1	 -30.0	 30.0;
	185	 184	 0.00032	 0.04392	 0.0	 330.0	 330.0	 330.0	 0.9999	 0.0	 1	 -30.0	 30.0;
	188	 190	 0.0003	 0.02732	 0.0	 500.0	 500.0	 500.0	 1.10037	 0.0	 1	 -30.0	 30.0;
	195	 197	 0.00035	 0.02375	 0.0	 500.0	 500.0	 500.0	 1.08671	 0.0	 1	 -30.0	 30.0;
	208	 209	 0.00051	 0.0275	 0.0	 400.0	 400.0	 400.0	 1.07702	 0.0	 1	 -30.0	 30.0;
	213	 211	 0.00084	 0.06858	 0.0	 250.0	 250.0	 250.0	 0.9999	 0.0	 1	 -30.0	 30.0;
	216	 218	 0.00033	 0.02711	 0.0	 500.0	 500.0	 500.0	 1.08613	 0.0	 1	 -30.0	 30.0;
	220	 218	 0.00032	 0.0464	 0.0	 330.0	 330.0	 330.0	 0.9999	 0.0	 1	 -30.0	 30.0;
	227	 225	 0.00113	 0.05647	 0.0	 330.0	 330.0	 330.0	 0.9999	 0.0	 1	 -30.0	 30.0;
	224	 226	 0.00075	 0.02469	 -0.008	 330.0	 330.0	 330.0	 1.04544	 0.0	 1	 -30.0	 30.0;
	3116	 180	 0.00029	 0.00317	 0.09184	 773.0	 773.0	 773.0	 0.0	 0.0	 1	 -30.0	 30.0;
	3116	 181	 0.0003	 0.00326	 0.09536	 771.0	 771.0	 771.0	 0.0	 0.0	 1	 -30.0	 30.0;
	240	 82	 0.01475	 0.08595	 0.13036	 315.0	 315.0	 315.0	 0.0	 0.0	 1	 -30.0	 30.0;
	3114	 90	 0.01244	 0.06959	 0.10842	 309.0	 309.0	 309.0	 0.0	 0.0	 1	 -30.0	 30.0;
	3114	 120	 0.01207	 0.06905	 0.11519	 312.0	 312.0	 312.0	 0.0	 0.0	 1	 -30.0	 30.0;
	144	 3115	 0.00168	 0.01603	 0.51488	 724.0	 724.0	 724.0	 0.0	 0.0	 1	 -30.0	 30.0;
	3117	 169	 0.0018	 0.01616	 0.0484	 387.0	 387.0	 387.0	 0.0	 0.0	 1	 -30.0	 30.0;
	3117	 170	 0.0018	 0.01616	 0.0484	 387.0	 387.0	 387.0	 0.0	 0.0	 1	 -30.0	 30.0;
	3118	 61	 0.00223	 0.02209	 0.69011	 737.0	 737.0	 737.0	 0.0	 0.0	 1	 -30.0	 30.0;
	3118	 62	 0.00223	 0.02209	 0.69011	 737.0	 737.0	 737.0	 0.0	 0.0	 1	 -30.0	 30.0;
	97	 3113	 0.00293	 0.03054	 0.95472	 755.0	 755.0	 755.0	 0.0	 0.0	 1	 -30.0	 30.0;
	56	 28	 0.01174	 0.07014	 0.12689	 319.0	 319.0	 319.0	 0.0	 0.0	 1	 -30.0	 30.0;
	35	 105	 0.00919	 0.06614	 0.10451	 348.0	 348.0	 348.0	 0.0	 0.0	 1	 -30.0	 30.0;
	36	 106	 0.00822	 0.05767	 0.0982	 344.0	 344.0	 344.0	 0.0	 0.0	 1	 -30.0	 30.0;
	167	 39	 0.01698	 0.12459	 0.1957	 231.0	 231.0	 231.0	 0.0	 0.0	 1	 -30.0	 30.0;
	153	 46	 0.01298	 0.06738	 0.10284	 250.0	 250.0	 250.0	 0.0	 0.0	 1	 -30.0	 30.0;
	152	 25	 0.01068	 0.0475	 0.09495	 277.0	 277.0	 277.0	 0.0	 0.0	 1	 -30.0	 30.0;
	188	 26	 0.01436	 0.10729	 0.16081	 231.0	 231.0	 231.0	 0.0	 0.0	 1	 -30.0	 30.0;
	53	 124	 0.01488	 0.08161	 0.1148	 266.0	 266.0	 266.0	 0.0	 0.0	 1	 -30.0	 30.0;
	52	 106	 0.01116	 0.07171	 0.10367	 267.0	 267.0	 267.0	 0.0	 0.0	 1	 -30.0	 30.0;
	203	 98	 0.00552	 0.05948	 0.17077	 317.0	 317.0	 317.0	 0.0	 0.0	 1	 -30.0	 30.0;
	234	 189	 0.01118	 0.06597	 0.10778	 267.0	 267.0	 267.0	 0.0	 0.0	 1	 -30.0	 30.0;
	221	 188	 0.01682	 0.08909	 0.12993	 295.0	 295.0	 295.0	 0.0	 0.0	 1	 -30.0	 30.0;
	222	 189	 0.01384	 0.08702	 0.13484	 295.0	 295.0	 295.0	 0.0	 0.0	 1	 -30.0	 30.0;
	238	 192	 0.01517	 0.09938	 0.14492	 197.0	 197.0	 197.0	 0.0	 0.0	 1	 -30.0	 30.0;
	57	 14	 0.01457	 0.07362	 0.13344	 294.0	 294.0	 294.0	 0.0	 0.0	 1	 -30.0	 30.0;
	229	 23	 0.01403	 0.10413	 0.15949	 231.0	 231.0	 231.0	 0.0	 0.0	 1	 -30.0	 30.0;
	115	 68	 0.00374	 0.0438	 0.10096	 439.0	 439.0	 439.0	 0.0	 0.0	 1	 -30.0	 30.0;
	187	 97	 0.00194	 0.02007	 0.54307	 753.0	 753.0	 753.0	 0.0	 0.0	 1	 -30.0	 30.0;
	58	 12	 0.0015	 0.01506	 0.4032	 742.0	 742.0	 742.0	 0.0	 0.0	 1	 -30.0	 30.0;
	210	 171	 0.00296	 0.03484	 0.9296	 800.0	 800.0	 800.0	 0.0	 0.0	 1	 -30.0	 30.0;
...